
     RDKit          3D

 66 70  0  0  0  0  0  0  0  0999 V2000
    3.9000   -3.4243    0.4073 C   0  0  0  0  0  0  0  0  0  0  0  0
    3.2566   -2.1678    0.2026 O   0  0  0  0  0  0  0  0  0  0  0  0
    2.9521   -1.5044    1.3570 C   0  0  0  0  0  0  0  0  0  0  0  0
    3.1177   -1.9646    2.4820 O   0  0  0  0  0  0  0  0  0  0  0  0
    2.2693   -0.1673    1.0832 C   0  0  2  0  0  0  0  0  0  0  0  0
    0.7738   -0.4648    0.8712 C   0  0  1  0  0  0  0  0  0  0  0  0
   -0.0164   -0.7100    2.1523 C   0  0  0  0  0  0  0  0  0  0  0  0
   -1.4743   -0.4062    1.7902 C   0  0  0  0  0  0  0  0  0  0  0  0
   -1.4633    0.3803    0.4408 C   0  0  2  0  0  0  0  0  0  0  0  0
   -2.2460    1.6650    0.7594 C   0  0  0  0  0  0  0  0  0  0  0  0
   -1.7570    2.6887    1.2181 O   0  0  0  0  0  0  0  0  0  0  0  0
   -3.5792    1.4163    0.5424 N   0  0  0  0  0  0  0  0  0  0  0  0
   -4.6834    2.2404    0.9545 C   0  0  0  0  0  0  0  0  0  0  0  0
   -4.6596    3.7441    0.8569 C   0  0  0  0  0  0  0  0  0  0  0  0
   -4.6675    3.0792    2.2052 C   0  0  0  0  0  0  0  0  0  0  0  0
   -3.7503    0.2614   -0.1823 C   0  0  0  0  0  0  0  0  0  0  0  0
   -4.8257   -0.2742   -0.4130 O   0  0  0  0  0  0  0  0  0  0  0  0
   -2.3679   -0.1790   -0.7214 C   0  0  2  0  0  0  0  0  0  0  0  0
   -2.3129   -1.6739   -1.2764 C   0  0  0  0  0  0  0  0  0  0  0  0
   -1.0333   -1.9427   -2.1039 C   0  0  0  0  0  0  0  0  0  0  0  0
   -2.3980   -2.7637   -0.1971 C   0  0  0  0  0  0  0  0  0  0  0  0
   -3.4697   -1.9726   -2.2811 C   0  0  0  0  0  0  0  0  0  0  0  0
   -2.1485    0.6945   -1.8627 O   0  0  0  0  0  0  0  0  0  0  0  0
    0.0380    0.7174    0.2501 C   0  0  2  0  0  0  0  0  0  0  0  0
    0.5938    1.0415   -1.1264 C   0  0  0  0  0  0  0  0  0  0  0  0
    2.1000    1.1978   -1.0883 C   0  0  0  0  0  0  0  0  0  0  0  0
    2.7086    1.9118   -2.1313 C   0  0  0  0  0  0  0  0  0  0  0  0
    4.0846    2.1119   -2.1450 C   0  0  0  0  0  0  0  0  0  0  0  0
    4.8729    1.6079   -1.1127 C   0  0  0  0  0  0  0  0  0  0  0  0
    4.2928    0.8775   -0.0711 C   0  0  0  0  0  0  0  0  0  0  0  0
    4.9927    0.3817    0.9991 O   0  0  0  0  0  0  0  0  0  0  0  0
    6.4123    0.4361    0.9424 C   0  0  0  0  0  0  0  0  0  0  0  0
    2.8985    0.6352   -0.0636 C   0  0  0  0  0  0  0  0  0  0  0  0
    4.8494   -3.2859    0.9342 H   0  0  0  0  0  0  0  0  0  0  0  0
    3.2444   -4.1068    0.9574 H   0  0  0  0  0  0  0  0  0  0  0  0
    4.1092   -3.8608   -0.5732 H   0  0  0  0  0  0  0  0  0  0  0  0
    2.3946    0.4531    1.9816 H   0  0  0  0  0  0  0  0  0  0  0  0
    0.6685   -1.3522    0.2411 H   0  0  0  0  0  0  0  0  0  0  0  0
    0.1020   -1.7348    2.5183 H   0  0  0  0  0  0  0  0  0  0  0  0
    0.3106   -0.0343    2.9526 H   0  0  0  0  0  0  0  0  0  0  0  0
   -1.9116    0.1767    2.6118 H   0  0  0  0  0  0  0  0  0  0  0  0
   -2.0647   -1.3175    1.7615 H   0  0  0  0  0  0  0  0  0  0  0  0
   -5.6454    1.7785    0.7273 H   0  0  0  0  0  0  0  0  0  0  0  0
   -3.7471    4.2404    0.5451 H   0  0  0  0  0  0  0  0  0  0  0  0
   -5.5639    4.2444    0.5307 H   0  0  0  0  0  0  0  0  0  0  0  0
   -3.7625    3.1357    2.7987 H   0  0  0  0  0  0  0  0  0  0  0  0
   -5.5782    3.1332    2.7909 H   0  0  0  0  0  0  0  0  0  0  0  0
   -0.9450   -1.2558   -2.9526 H   0  0  0  0  0  0  0  0  0  0  0  0
   -0.1283   -1.8735   -1.5054 H   0  0  0  0  0  0  0  0  0  0  0  0
   -1.0372   -2.9582   -2.5216 H   0  0  0  0  0  0  0  0  0  0  0  0
   -3.2648   -2.6185    0.4539 H   0  0  0  0  0  0  0  0  0  0  0  0
   -1.4876   -2.8081    0.4062 H   0  0  0  0  0  0  0  0  0  0  0  0
   -2.5039   -3.7581   -0.6472 H   0  0  0  0  0  0  0  0  0  0  0  0
   -3.3021   -2.9253   -2.8002 H   0  0  0  0  0  0  0  0  0  0  0  0
   -4.4353   -2.0811   -1.7834 H   0  0  0  0  0  0  0  0  0  0  0  0
   -3.5601   -1.2095   -3.0574 H   0  0  0  0  0  0  0  0  0  0  0  0
   -2.8949    0.5922   -2.4807 H   0  0  0  0  0  0  0  0  0  0  0  0
    0.2792    1.5887    0.8802 H   0  0  0  0  0  0  0  0  0  0  0  0
    0.3749    0.2629   -1.8564 H   0  0  0  0  0  0  0  0  0  0  0  0
    0.1417    1.9759   -1.4810 H   0  0  0  0  0  0  0  0  0  0  0  0
    2.1047    2.3293   -2.9349 H   0  0  0  0  0  0  0  0  0  0  0  0
    4.5430    2.6770   -2.9524 H   0  0  0  0  0  0  0  0  0  0  0  0
    5.9375    1.8124   -1.1445 H   0  0  0  0  0  0  0  0  0  0  0  0
    6.7943   -0.0747    0.0522 H   0  0  0  0  0  0  0  0  0  0  0  0
    6.7673    1.4712    0.9898 H   0  0  0  0  0  0  0  0  0  0  0  0
    6.8005   -0.0902    1.8190 H   0  0  0  0  0  0  0  0  0  0  0  0
  1  2  1  0
  2  3  1  0
  3  4  2  0
  3  5  1  0
  5  6  1  0
  6  7  1  0
  7  8  1  0
  9  8  1  1
  9 10  1  0
 10 11  2  0
 10 12  1  0
 12 13  1  0
 13 14  1  0
 14 15  1  0
 12 16  1  0
 16 17  2  0
 16 18  1  0
 18 19  1  0
 19 20  1  0
 19 21  1  0
 19 22  1  0
 18 23  1  6
  9 24  1  0
 24 25  1  0
 25 26  1  0
 26 27  2  0
 27 28  1  0
 28 29  2  0
 29 30  1  0
 30 31  1  0
 31 32  1  0
 30 33  2  0
 33  5  1  0
 24  6  1  0
 33 26  1  0
 18  9  1  0
 15 13  1  0
  1 34  1  0
  1 35  1  0
  1 36  1  0
  5 37  1  1
  6 38  1  6
  7 39  1  0
  7 40  1  0
  8 41  1  0
  8 42  1  0
 13 43  1  0
 14 44  1  0
 14 45  1  0
 15 46  1  0
 15 47  1  0
 20 48  1  0
 20 49  1  0
 20 50  1  0
 21 51  1  0
 21 52  1  0
 21 53  1  0
 22 54  1  0
 22 55  1  0
 22 56  1  0
 23 57  1  0
 24 58  1  1
 25 59  1  0
 25 60  1  0
 27 61  1  0
 28 62  1  0
 29 63  1  0
 32 64  1  0
 32 65  1  0
 32 66  1  0
M  END
$$$$
