
     RDKit          3D

 36 39  0  0  0  0  0  0  0  0999 V2000
   -3.7639    2.2557    0.3570 C   0  0  0  0  0  0  0  0  0  0  0  0
   -2.9246    1.0057    0.2828 C   0  0  0  0  0  0  0  0  0  0  0  0
   -1.5235    1.1364    0.1852 C   0  0  0  0  0  0  0  0  0  0  0  0
   -0.7655   -0.0123    0.1179 C   0  0  0  0  0  0  0  0  0  0  0  0
   -1.3771   -1.2842    0.1462 C   0  0  0  0  0  0  0  0  0  0  0  0
   -2.7439   -1.4463    0.2411 C   0  0  0  0  0  0  0  0  0  0  0  0
   -3.5351   -0.2862    0.3108 C   0  0  0  0  0  0  0  0  0  0  0  0
   -5.0309   -0.4342    0.4150 C   0  0  0  0  0  0  0  0  0  0  0  0
   -0.3070   -2.3205    0.0582 C   0  0  0  0  0  0  0  0  0  0  0  0
   -0.4532   -3.5276    0.0543 O   0  0  0  0  0  0  0  0  0  0  0  0
    0.8928   -1.5362   -0.0175 C   0  0  0  0  0  0  0  0  0  0  0  0
    0.6557   -0.1830    0.0153 C   0  0  0  0  0  0  0  0  0  0  0  0
    1.8814    0.4923   -0.0635 C   0  0  0  0  0  0  0  0  0  0  0  0
    2.2748    1.8451   -0.0754 C   0  0  0  0  0  0  0  0  0  0  0  0
    3.6344    2.1475   -0.1682 C   0  0  0  0  0  0  0  0  0  0  0  0
    4.5982    1.1519   -0.2482 C   0  0  0  0  0  0  0  0  0  0  0  0
    4.2342   -0.1974   -0.2383 C   0  0  0  0  0  0  0  0  0  0  0  0
    2.8689   -0.5133   -0.1453 C   0  0  0  0  0  0  0  0  0  0  0  0
    2.2267   -1.7489   -0.1144 N   0  0  0  0  0  0  0  0  0  0  0  0
    2.8836   -3.0329   -0.1761 C   0  0  0  0  0  0  0  0  0  0  0  0
    4.0667    3.4433   -0.1835 O   0  0  0  0  0  0  0  0  0  0  0  0
   -3.1442    3.1581    0.3238 H   0  0  0  0  0  0  0  0  0  0  0  0
   -4.4552    2.2997   -0.4903 H   0  0  0  0  0  0  0  0  0  0  0  0
   -4.3288    2.2786    1.2941 H   0  0  0  0  0  0  0  0  0  0  0  0
   -1.0515    2.1129    0.1633 H   0  0  0  0  0  0  0  0  0  0  0  0
   -3.1758   -2.4420    0.2600 H   0  0  0  0  0  0  0  0  0  0  0  0
   -5.3938    0.0191    1.3428 H   0  0  0  0  0  0  0  0  0  0  0  0
   -5.3304   -1.4877    0.4238 H   0  0  0  0  0  0  0  0  0  0  0  0
   -5.5201    0.0401   -0.4415 H   0  0  0  0  0  0  0  0  0  0  0  0
    1.5259    2.6256   -0.0132 H   0  0  0  0  0  0  0  0  0  0  0  0
    5.6480    1.4254   -0.3193 H   0  0  0  0  0  0  0  0  0  0  0  0
    4.9936   -0.9703   -0.3012 H   0  0  0  0  0  0  0  0  0  0  0  0
    2.1456   -3.8360   -0.1333 H   0  0  0  0  0  0  0  0  0  0  0  0
    3.5637   -3.1136    0.6758 H   0  0  0  0  0  0  0  0  0  0  0  0
    3.4367   -3.0925   -1.1170 H   0  0  0  0  0  0  0  0  0  0  0  0
    3.2938    4.0276   -0.1219 H   0  0  0  0  0  0  0  0  0  0  0  0
  1  2  1  0
  2  3  1  0
  3  4  2  0
  4  5  1  0
  5  6  2  0
  6  7  1  0
  7  8  1  0
  5  9  1  0
  9 10  2  0
  9 11  1  0
 11 12  2  0
 12 13  1  0
 13 14  2  0
 14 15  1  0
 15 16  2  0
 16 17  1  0
 17 18  2  0
 18 19  1  0
 19 20  1  0
 15 21  1  0
  7  2  2  0
 12  4  1  0
 19 11  1  0
 18 13  1  0
  1 22  1  0
  1 23  1  0
  1 24  1  0
  3 25  1  0
  6 26  1  0
  8 27  1  0
  8 28  1  0
  8 29  1  0
 14 30  1  0
 16 31  1  0
 17 32  1  0
 20 33  1  0
 20 34  1  0
 20 35  1  0
 21 36  1  0
M  END
$$$$
