
     RDKit          3D

 21 21  0  0  0  0  0  0  0  0999 V2000
    0.4768    0.9679   -0.9317 C   0  0  0  0  0  0  0  0  0  0  0  0
    1.7981    1.2474   -0.5742 C   0  0  0  0  0  0  0  0  0  0  0  0
    2.5461    0.2813    0.0899 C   0  0  0  0  0  0  0  0  0  0  0  0
    1.9953   -0.9555    0.4002 C   0  0  0  0  0  0  0  0  0  0  0  0
    0.6756   -1.2348    0.0428 C   0  0  0  0  0  0  0  0  0  0  0  0
   -0.0975   -0.2749   -0.6258 C   0  0  0  0  0  0  0  0  0  0  0  0
   -1.5295   -0.5731   -1.0052 C   0  0  0  0  0  0  0  0  0  0  0  0
   -2.4911   -0.6330    0.1918 C   0  0  0  0  0  0  0  0  0  0  0  0
   -2.6146    0.6394    0.9051 N   0  0  0  0  0  0  0  0  0  0  0  0
    3.8387    0.5116    0.4576 O   0  0  0  0  0  0  0  0  0  0  0  0
   -0.1024    1.7279   -1.4514 H   0  0  0  0  0  0  0  0  0  0  0  0
    2.2215    2.2156   -0.8213 H   0  0  0  0  0  0  0  0  0  0  0  0
    2.5914   -1.7010    0.9187 H   0  0  0  0  0  0  0  0  0  0  0  0
    0.2558   -2.2073    0.2901 H   0  0  0  0  0  0  0  0  0  0  0  0
   -1.5532   -1.5348   -1.5336 H   0  0  0  0  0  0  0  0  0  0  0  0
   -1.8884    0.1715   -1.7276 H   0  0  0  0  0  0  0  0  0  0  0  0
   -3.4850   -0.9215   -0.1675 H   0  0  0  0  0  0  0  0  0  0  0  0
   -2.1745   -1.4042    0.9027 H   0  0  0  0  0  0  0  0  0  0  0  0
   -1.6990    0.8914    1.2825 H   0  0  0  0  0  0  0  0  0  0  0  0
   -2.8496    1.3790    0.2449 H   0  0  0  0  0  0  0  0  0  0  0  0
    4.0859    1.4068    0.1743 H   0  0  0  0  0  0  0  0  0  0  0  0
  1  2  2  0
  2  3  1  0
  3  4  2  0
  4  5  1  0
  5  6  2  0
  6  7  1  0
  7  8  1  0
  8  9  1  0
  3 10  1  0
  6  1  1  0
  1 11  1  0
  2 12  1  0
  4 13  1  0
  5 14  1  0
  7 15  1  0
  7 16  1  0
  8 17  1  0
  8 18  1  0
  9 19  1  0
  9 20  1  0
 10 21  1  0
M  END
$$$$
