
     RDKit          3D

 56 59  0  0  0  0  0  0  0  0999 V2000
   -4.0880    1.0619   -1.2909 O   0  0  0  0  0  0  0  0  0  0  0  0
   -3.8617    0.3573   -0.3076 C   0  0  0  0  0  0  0  0  0  0  0  0
   -4.9334   -0.1183    0.6816 C   0  0  0  0  0  0  0  0  0  0  0  0
   -6.3183    0.2660    0.3824 N   0  0  0  0  0  0  0  0  0  0  0  0
   -6.5917    1.6991    0.4114 C   0  0  0  0  0  0  0  0  0  0  0  0
   -7.9369    1.8312   -0.2967 C   0  0  0  0  0  0  0  0  0  0  0  0
   -8.1892    0.4778   -0.9513 C   0  0  0  0  0  0  0  0  0  0  0  0
   -6.8530   -0.2405   -0.8758 C   0  0  0  0  0  0  0  0  0  0  0  0
   -2.4461   -0.0642   -0.0547 C   0  0  0  0  0  0  0  0  0  0  0  0
   -1.4604    0.3180   -0.9677 C   0  0  0  0  0  0  0  0  0  0  0  0
   -0.1230   -0.0563   -0.7747 C   0  0  0  0  0  0  0  0  0  0  0  0
    0.2851   -0.8164    0.3307 C   0  0  0  0  0  0  0  0  0  0  0  0
    1.6030   -1.1912    0.5195 N   0  0  0  0  0  0  0  0  0  0  0  0
    2.1293   -1.5100    1.8599 C   0  0  0  0  0  0  0  0  0  0  0  0
    3.6307   -1.1477    1.9680 C   0  0  0  0  0  0  0  0  0  0  0  0
    4.4767   -1.8517    0.9916 N   0  0  0  0  0  0  0  0  0  0  0  0
    3.7848   -2.0773   -0.2873 C   0  0  0  0  0  0  0  0  0  0  0  0
    2.5942   -1.1298   -0.5700 C   0  0  0  0  0  0  0  0  0  0  0  0
    5.8407   -1.3266    0.8817 C   0  0  0  0  0  0  0  0  0  0  0  0
    6.0026    0.0519    0.2727 C   0  0  0  0  0  0  0  0  0  0  0  0
    6.1894    0.2115   -1.1089 C   0  0  0  0  0  0  0  0  0  0  0  0
    6.3375    1.4829   -1.6673 C   0  0  0  0  0  0  0  0  0  0  0  0
    6.3088    2.6110   -0.8511 C   0  0  0  0  0  0  0  0  0  0  0  0
    6.1386    2.4692    0.5239 C   0  0  0  0  0  0  0  0  0  0  0  0
    5.9905    1.1981    1.0826 C   0  0  0  0  0  0  0  0  0  0  0  0
   -0.7239   -1.1895    1.2332 C   0  0  0  0  0  0  0  0  0  0  0  0
   -2.0675   -0.8240    1.0523 C   0  0  0  0  0  0  0  0  0  0  0  0
   -4.6798    0.2713    1.6745 H   0  0  0  0  0  0  0  0  0  0  0  0
   -4.8933   -1.2128    0.7292 H   0  0  0  0  0  0  0  0  0  0  0  0
   -6.6481    2.0734    1.4390 H   0  0  0  0  0  0  0  0  0  0  0  0
   -5.8452    2.2955   -0.1225 H   0  0  0  0  0  0  0  0  0  0  0  0
   -7.8976    2.6261   -1.0492 H   0  0  0  0  0  0  0  0  0  0  0  0
   -8.7417    2.0715    0.4063 H   0  0  0  0  0  0  0  0  0  0  0  0
   -8.9499   -0.0712   -0.3823 H   0  0  0  0  0  0  0  0  0  0  0  0
   -8.5481    0.5788   -1.9802 H   0  0  0  0  0  0  0  0  0  0  0  0
   -6.2437    0.0252   -1.7452 H   0  0  0  0  0  0  0  0  0  0  0  0
   -6.9855   -1.3268   -0.8610 H   0  0  0  0  0  0  0  0  0  0  0  0
   -1.7191    0.9146   -1.8408 H   0  0  0  0  0  0  0  0  0  0  0  0
    0.6009    0.2865   -1.5093 H   0  0  0  0  0  0  0  0  0  0  0  0
    1.6020   -0.9399    2.6345 H   0  0  0  0  0  0  0  0  0  0  0  0
    1.9834   -2.5776    2.0646 H   0  0  0  0  0  0  0  0  0  0  0  0
    3.9804   -1.3832    2.9798 H   0  0  0  0  0  0  0  0  0  0  0  0
    3.7034   -0.0619    1.8424 H   0  0  0  0  0  0  0  0  0  0  0  0
    3.3897   -3.1018   -0.2501 H   0  0  0  0  0  0  0  0  0  0  0  0
    4.4740   -2.0732   -1.1382 H   0  0  0  0  0  0  0  0  0  0  0  0
    2.1426   -1.4482   -1.5173 H   0  0  0  0  0  0  0  0  0  0  0  0
    2.9501   -0.0997   -0.6891 H   0  0  0  0  0  0  0  0  0  0  0  0
    6.3055   -1.3291    1.8771 H   0  0  0  0  0  0  0  0  0  0  0  0
    6.4481   -2.0373    0.3053 H   0  0  0  0  0  0  0  0  0  0  0  0
    6.2302   -0.6569   -1.7620 H   0  0  0  0  0  0  0  0  0  0  0  0
    6.4796    1.5922   -2.7393 H   0  0  0  0  0  0  0  0  0  0  0  0
    6.4246    3.6005   -1.2856 H   0  0  0  0  0  0  0  0  0  0  0  0
    6.1221    3.3483    1.1629 H   0  0  0  0  0  0  0  0  0  0  0  0
    5.8644    1.1065    2.1591 H   0  0  0  0  0  0  0  0  0  0  0  0
   -0.4837   -1.8056    2.0961 H   0  0  0  0  0  0  0  0  0  0  0  0
   -2.7844   -1.1576    1.7959 H   0  0  0  0  0  0  0  0  0  0  0  0
  1  2  2  0
  2  3  1  0
  3  4  1  0
  4  5  1  0
  5  6  1  0
  6  7  1  0
  7  8  1  0
  2  9  1  0
  9 10  1  0
 10 11  2  0
 11 12  1  0
 12 13  1  0
 13 14  1  0
 14 15  1  0
 15 16  1  0
 16 17  1  0
 17 18  1  0
 16 19  1  0
 19 20  1  0
 20 21  2  0
 21 22  1  0
 22 23  2  0
 23 24  1  0
 24 25  2  0
 12 26  2  0
 26 27  1  0
  8  4  1  0
 27  9  2  0
 18 13  1  0
 25 20  1  0
  3 28  1  0
  3 29  1  0
  5 30  1  0
  5 31  1  0
  6 32  1  0
  6 33  1  0
  7 34  1  0
  7 35  1  0
  8 36  1  0
  8 37  1  0
 10 38  1  0
 11 39  1  0
 14 40  1  0
 14 41  1  0
 15 42  1  0
 15 43  1  0
 17 44  1  0
 17 45  1  0
 18 46  1  0
 18 47  1  0
 19 48  1  0
 19 49  1  0
 21 50  1  0
 22 51  1  0
 23 52  1  0
 24 53  1  0
 25 54  1  0
 26 55  1  0
 27 56  1  0
M  END
$$$$
