
     RDKit          3D

 71 72  0  0  0  0  0  0  0  0999 V2000
   -5.0715    2.8005    0.6727 N   0  0  0  0  0  0  0  0  0  0  0  0
   -5.8171    1.5170    0.7123 C   0  0  1  0  0  0  0  0  0  0  0  0
   -6.2287    1.0922   -0.7065 C   0  0  0  0  0  0  0  0  0  0  0  0
   -7.1030   -0.1409   -0.7338 C   0  0  0  0  0  0  0  0  0  0  0  0
   -6.6023   -1.3595   -1.2127 C   0  0  0  0  0  0  0  0  0  0  0  0
   -7.4104   -2.4973   -1.2286 C   0  0  0  0  0  0  0  0  0  0  0  0
   -8.7173   -2.4223   -0.7632 C   0  0  0  0  0  0  0  0  0  0  0  0
   -9.4712   -3.5590   -0.7908 O   0  0  0  0  0  0  0  0  0  0  0  0
   -9.2338   -1.2235   -0.2839 C   0  0  0  0  0  0  0  0  0  0  0  0
   -8.4268   -0.0832   -0.2713 C   0  0  0  0  0  0  0  0  0  0  0  0
   -4.9526    0.4629    1.4378 C   0  0  0  0  0  0  0  0  0  0  0  0
   -5.2655    0.0019    2.5336 O   0  0  0  0  0  0  0  0  0  0  0  0
   -3.7696    0.1454    0.8123 N   0  0  0  0  0  0  0  0  0  0  0  0
   -2.8052   -0.7551    1.4131 C   0  0  0  0  0  0  0  0  0  0  0  0
   -1.4184   -0.4363    0.8511 C   0  0  0  0  0  0  0  0  0  0  0  0
   -1.2595    0.0779   -0.2563 O   0  0  0  0  0  0  0  0  0  0  0  0
   -0.3746   -0.8050    1.6738 N   0  0  0  0  0  0  0  0  0  0  0  0
    0.9704   -0.3347    1.3775 C   0  0  0  0  0  0  0  0  0  0  0  0
    1.1547    1.0607    1.9912 C   0  0  0  0  0  0  0  0  0  0  0  0
    0.4574    1.4206    2.9472 O   0  0  0  0  0  0  0  0  0  0  0  0
    2.1476    1.8671    1.4821 N   0  0  0  0  0  0  0  0  0  0  0  0
    2.4022    3.1764    2.0561 C   0  0  0  0  0  0  0  0  0  0  0  0
    3.6500    3.6703    1.3455 C   0  0  0  0  0  0  0  0  0  0  0  0
    3.5302    3.0298   -0.0331 C   0  0  0  0  0  0  0  0  0  0  0  0
    2.9493    1.6438    0.2743 C   0  0  1  0  0  0  0  0  0  0  0  0
    4.0625    0.5953    0.5053 C   0  0  0  0  0  0  0  0  0  0  0  0
    4.2098   -0.0068    1.5659 O   0  0  0  0  0  0  0  0  0  0  0  0
    4.8474    0.3349   -0.6027 N   0  0  0  0  0  0  0  0  0  0  0  0
    6.0660   -0.4678   -0.4743 C   0  0  1  0  0  0  0  0  0  0  0  0
    6.4204   -1.1743   -1.7901 C   0  0  0  0  0  0  0  0  0  0  0  0
    5.5944   -2.4305   -2.1409 C   0  0  0  0  0  0  0  0  0  0  0  0
    4.1113   -2.1389   -2.3647 C   0  0  0  0  0  0  0  0  0  0  0  0
    5.7702   -3.5462   -1.1101 C   0  0  0  0  0  0  0  0  0  0  0  0
    7.1991    0.4906   -0.0941 C   0  0  0  0  0  0  0  0  0  0  0  0
    7.2149    1.6992   -0.2770 O   0  0  0  0  0  0  0  0  0  0  0  0
    8.2593   -0.1330    0.4557 O   0  0  0  0  0  0  0  0  0  0  0  0
   -4.8938    3.0852    1.6395 H   0  0  0  0  0  0  0  0  0  0  0  0
   -4.1466    2.6406    0.2733 H   0  0  0  0  0  0  0  0  0  0  0  0
   -6.7140    1.6781    1.3237 H   0  0  0  0  0  0  0  0  0  0  0  0
   -6.7876    1.9080   -1.1862 H   0  0  0  0  0  0  0  0  0  0  0  0
   -5.3463    0.9296   -1.3405 H   0  0  0  0  0  0  0  0  0  0  0  0
   -5.5804   -1.4344   -1.5768 H   0  0  0  0  0  0  0  0  0  0  0  0
   -7.0206   -3.4405   -1.6000 H   0  0  0  0  0  0  0  0  0  0  0  0
  -10.3466   -3.3547   -0.4219 H   0  0  0  0  0  0  0  0  0  0  0  0
  -10.2525   -1.1562    0.0854 H   0  0  0  0  0  0  0  0  0  0  0  0
   -8.8367    0.8523    0.1047 H   0  0  0  0  0  0  0  0  0  0  0  0
   -3.5462    0.5079   -0.1077 H   0  0  0  0  0  0  0  0  0  0  0  0
   -2.8189   -0.6466    2.5024 H   0  0  0  0  0  0  0  0  0  0  0  0
   -3.0753   -1.7802    1.1404 H   0  0  0  0  0  0  0  0  0  0  0  0
   -0.5869   -0.8625    2.6648 H   0  0  0  0  0  0  0  0  0  0  0  0
    1.6695   -1.0208    1.8605 H   0  0  0  0  0  0  0  0  0  0  0  0
    1.1290   -0.3359    0.2996 H   0  0  0  0  0  0  0  0  0  0  0  0
    1.5391    3.8155    1.8375 H   0  0  0  0  0  0  0  0  0  0  0  0
    2.5268    3.1098    3.1413 H   0  0  0  0  0  0  0  0  0  0  0  0
    3.7073    4.7613    1.3044 H   0  0  0  0  0  0  0  0  0  0  0  0
    4.5477    3.2960    1.8527 H   0  0  0  0  0  0  0  0  0  0  0  0
    2.8158    3.6032   -0.6365 H   0  0  0  0  0  0  0  0  0  0  0  0
    4.4869    3.0231   -0.5603 H   0  0  0  0  0  0  0  0  0  0  0  0
    2.3103    1.2925   -0.5430 H   0  0  0  0  0  0  0  0  0  0  0  0
    4.8524    1.0243   -1.3475 H   0  0  0  0  0  0  0  0  0  0  0  0
    5.9474   -1.1753    0.3521 H   0  0  0  0  0  0  0  0  0  0  0  0
    6.3426   -0.4600   -2.6216 H   0  0  0  0  0  0  0  0  0  0  0  0
    7.4769   -1.4749   -1.7606 H   0  0  0  0  0  0  0  0  0  0  0  0
    5.9938   -2.8060   -3.0928 H   0  0  0  0  0  0  0  0  0  0  0  0
    3.5979   -1.8807   -1.4332 H   0  0  0  0  0  0  0  0  0  0  0  0
    3.6080   -3.0205   -2.7774 H   0  0  0  0  0  0  0  0  0  0  0  0
    3.9769   -1.3180   -3.0774 H   0  0  0  0  0  0  0  0  0  0  0  0
    5.3081   -4.4724   -1.4680 H   0  0  0  0  0  0  0  0  0  0  0  0
    6.8314   -3.7521   -0.9339 H   0  0  0  0  0  0  0  0  0  0  0  0
    5.3061   -3.2954   -0.1521 H   0  0  0  0  0  0  0  0  0  0  0  0
    8.8889    0.5874    0.6681 H   0  0  0  0  0  0  0  0  0  0  0  0
  1  2  1  0
  2  3  1  0
  3  4  1  0
  4  5  1  0
  5  6  2  0
  6  7  1  0
  7  8  1  0
  7  9  2  0
  9 10  1  0
  2 11  1  0
 11 12  2  0
 11 13  1  0
 13 14  1  0
 14 15  1  0
 15 16  2  0
 15 17  1  0
 17 18  1  0
 18 19  1  0
 19 20  2  0
 19 21  1  0
 21 22  1  0
 22 23  1  0
 23 24  1  0
 24 25  1  0
 25 26  1  0
 26 27  2  0
 26 28  1  0
 28 29  1  0
 29 30  1  0
 30 31  1  0
 31 32  1  0
 31 33  1  0
 29 34  1  0
 34 35  2  0
 34 36  1  0
 10  4  2  0
 25 21  1  0
  1 37  1  0
  1 38  1  0
  2 39  1  1
  3 40  1  0
  3 41  1  0
  5 42  1  0
  6 43  1  0
  8 44  1  0
  9 45  1  0
 10 46  1  0
 13 47  1  0
 14 48  1  0
 14 49  1  0
 17 50  1  0
 18 51  1  0
 18 52  1  0
 22 53  1  0
 22 54  1  0
 23 55  1  0
 23 56  1  0
 24 57  1  0
 24 58  1  0
 25 59  1  6
 28 60  1  0
 29 61  1  1
 30 62  1  0
 30 63  1  0
 31 64  1  0
 32 65  1  0
 32 66  1  0
 32 67  1  0
 33 68  1  0
 33 69  1  0
 33 70  1  0
 36 71  1  0
M  END
$$$$
