
     RDKit          3D

 71 72  0  0  0  0  0  0  0  0999 V2000
    5.7530    4.0292    1.9752 N   0  0  0  0  0  0  0  0  0  0  0  0
    5.1430    2.8709    1.2791 C   0  0  1  0  0  0  0  0  0  0  0  0
    6.2299    2.0273    0.5936 C   0  0  0  0  0  0  0  0  0  0  0  0
    5.6523    1.0431   -0.3996 C   0  0  0  0  0  0  0  0  0  0  0  0
    5.5762    1.3707   -1.7615 C   0  0  0  0  0  0  0  0  0  0  0  0
    5.0298    0.4726   -2.6788 C   0  0  0  0  0  0  0  0  0  0  0  0
    4.5507   -0.7528   -2.2365 C   0  0  0  0  0  0  0  0  0  0  0  0
    4.0263   -1.6068   -3.1606 O   0  0  0  0  0  0  0  0  0  0  0  0
    4.6094   -1.0948   -0.8899 C   0  0  0  0  0  0  0  0  0  0  0  0
    5.1663   -0.1995    0.0247 C   0  0  0  0  0  0  0  0  0  0  0  0
    4.3734    2.0398    2.3312 C   0  0  0  0  0  0  0  0  0  0  0  0
    4.9225    1.2271    3.0707 O   0  0  0  0  0  0  0  0  0  0  0  0
    3.0422    2.3677    2.4453 N   0  0  0  0  0  0  0  0  0  0  0  0
    2.1290    1.5483    3.2194 C   0  0  0  0  0  0  0  0  0  0  0  0
    1.0318    1.0280    2.2892 C   0  0  0  0  0  0  0  0  0  0  0  0
    0.5747    1.7104    1.3732 O   0  0  0  0  0  0  0  0  0  0  0  0
    0.5693   -0.2367    2.5907 N   0  0  0  0  0  0  0  0  0  0  0  0
   -0.3819   -0.8763    1.6966 C   0  0  0  0  0  0  0  0  0  0  0  0
    0.3695   -1.5621    0.5439 C   0  0  0  0  0  0  0  0  0  0  0  0
    1.4850   -2.0598    0.7382 O   0  0  0  0  0  0  0  0  0  0  0  0
   -0.2539   -1.6381   -0.6860 N   0  0  0  0  0  0  0  0  0  0  0  0
    0.4474   -2.1812   -1.8342 C   0  0  0  0  0  0  0  0  0  0  0  0
   -0.1061   -1.3970   -3.0114 C   0  0  0  0  0  0  0  0  0  0  0  0
   -1.5560   -1.1758   -2.6128 C   0  0  0  0  0  0  0  0  0  0  0  0
   -1.4856   -0.9503   -1.0942 C   0  0  1  0  0  0  0  0  0  0  0  0
   -2.7540   -1.5076   -0.4168 C   0  0  0  0  0  0  0  0  0  0  0  0
   -2.7307   -2.4146    0.4111 O   0  0  0  0  0  0  0  0  0  0  0  0
   -3.9187   -0.8559   -0.7718 N   0  0  0  0  0  0  0  0  0  0  0  0
   -5.2198   -1.3878   -0.3609 C   0  0  1  0  0  0  0  0  0  0  0  0
   -6.2508   -0.2719   -0.1488 C   0  0  0  0  0  0  0  0  0  0  0  0
   -6.0554    0.6266    1.0915 C   0  0  0  0  0  0  0  0  0  0  0  0
   -4.8484    1.5584    0.9789 C   0  0  0  0  0  0  0  0  0  0  0  0
   -5.9936   -0.1667    2.3980 C   0  0  0  0  0  0  0  0  0  0  0  0
   -5.6982   -2.3067   -1.4875 C   0  0  0  0  0  0  0  0  0  0  0  0
   -5.3413   -2.2567   -2.6563 O   0  0  0  0  0  0  0  0  0  0  0  0
   -6.6264   -3.1971   -1.0916 O   0  0  0  0  0  0  0  0  0  0  0  0
    6.3785    3.6650    2.6976 H   0  0  0  0  0  0  0  0  0  0  0  0
    5.0213    4.5265    2.4847 H   0  0  0  0  0  0  0  0  0  0  0  0
    4.4439    3.2570    0.5309 H   0  0  0  0  0  0  0  0  0  0  0  0
    6.9255    2.6882    0.0589 H   0  0  0  0  0  0  0  0  0  0  0  0
    6.8405    1.4850    1.3227 H   0  0  0  0  0  0  0  0  0  0  0  0
    5.9459    2.3300   -2.1193 H   0  0  0  0  0  0  0  0  0  0  0  0
    4.9829    0.7271   -3.7345 H   0  0  0  0  0  0  0  0  0  0  0  0
    3.7024   -2.3905   -2.6872 H   0  0  0  0  0  0  0  0  0  0  0  0
    4.2316   -2.0474   -0.5301 H   0  0  0  0  0  0  0  0  0  0  0  0
    5.2176   -0.4850    1.0750 H   0  0  0  0  0  0  0  0  0  0  0  0
    2.6180    2.9461    1.7260 H   0  0  0  0  0  0  0  0  0  0  0  0
    2.6486    0.7212    3.7113 H   0  0  0  0  0  0  0  0  0  0  0  0
    1.6623    2.1883    3.9741 H   0  0  0  0  0  0  0  0  0  0  0  0
    1.2336   -0.8661    3.0292 H   0  0  0  0  0  0  0  0  0  0  0  0
   -1.0943   -0.1293    1.3465 H   0  0  0  0  0  0  0  0  0  0  0  0
   -0.9103   -1.6429    2.2707 H   0  0  0  0  0  0  0  0  0  0  0  0
    1.5302   -2.0829   -1.7396 H   0  0  0  0  0  0  0  0  0  0  0  0
    0.1928   -3.2440   -1.9066 H   0  0  0  0  0  0  0  0  0  0  0  0
    0.4043   -0.4301   -3.0943 H   0  0  0  0  0  0  0  0  0  0  0  0
    0.0030   -1.9274   -3.9605 H   0  0  0  0  0  0  0  0  0  0  0  0
   -2.1462   -2.0714   -2.8521 H   0  0  0  0  0  0  0  0  0  0  0  0
   -2.0093   -0.3275   -3.1368 H   0  0  0  0  0  0  0  0  0  0  0  0
   -1.3809    0.1145   -0.8597 H   0  0  0  0  0  0  0  0  0  0  0  0
   -3.9151   -0.3467   -1.6491 H   0  0  0  0  0  0  0  0  0  0  0  0
   -5.1004   -2.0047    0.5355 H   0  0  0  0  0  0  0  0  0  0  0  0
   -7.2481   -0.7235   -0.0738 H   0  0  0  0  0  0  0  0  0  0  0  0
   -6.2872    0.3660   -1.0409 H   0  0  0  0  0  0  0  0  0  0  0  0
   -6.9457    1.2683    1.1460 H   0  0  0  0  0  0  0  0  0  0  0  0
   -3.9028    1.0167    1.0677 H   0  0  0  0  0  0  0  0  0  0  0  0
   -4.8723    2.3035    1.7826 H   0  0  0  0  0  0  0  0  0  0  0  0
   -4.8518    2.0984    0.0280 H   0  0  0  0  0  0  0  0  0  0  0  0
   -5.9978    0.5086    3.2602 H   0  0  0  0  0  0  0  0  0  0  0  0
   -6.8587   -0.8329    2.4933 H   0  0  0  0  0  0  0  0  0  0  0  0
   -5.0861   -0.7730    2.4607 H   0  0  0  0  0  0  0  0  0  0  0  0
   -6.8368   -3.7094   -1.8996 H   0  0  0  0  0  0  0  0  0  0  0  0
  1  2  1  0
  2  3  1  0
  3  4  1  0
  4  5  1  0
  5  6  2  0
  6  7  1  0
  7  8  1  0
  7  9  2  0
  9 10  1  0
  2 11  1  0
 11 12  2  0
 11 13  1  0
 13 14  1  0
 14 15  1  0
 15 16  2  0
 15 17  1  0
 17 18  1  0
 18 19  1  0
 19 20  2  0
 19 21  1  0
 21 22  1  0
 22 23  1  0
 23 24  1  0
 24 25  1  0
 25 26  1  0
 26 27  2  0
 26 28  1  0
 28 29  1  0
 29 30  1  0
 30 31  1  0
 31 32  1  0
 31 33  1  0
 29 34  1  0
 34 35  2  0
 34 36  1  0
 10  4  2  0
 25 21  1  0
  1 37  1  0
  1 38  1  0
  2 39  1  6
  3 40  1  0
  3 41  1  0
  5 42  1  0
  6 43  1  0
  8 44  1  0
  9 45  1  0
 10 46  1  0
 13 47  1  0
 14 48  1  0
 14 49  1  0
 17 50  1  0
 18 51  1  0
 18 52  1  0
 22 53  1  0
 22 54  1  0
 23 55  1  0
 23 56  1  0
 24 57  1  0
 24 58  1  0
 25 59  1  6
 28 60  1  0
 29 61  1  1
 30 62  1  0
 30 63  1  0
 31 64  1  0
 32 65  1  0
 32 66  1  0
 32 67  1  0
 33 68  1  0
 33 69  1  0
 33 70  1  0
 36 71  1  0
M  END
$$$$
