
     RDKit          3D

 40 44  0  0  0  0  0  0  0  0999 V2000
   -3.6593   -1.4310    0.8369 C   0  0  0  0  0  0  0  0  0  0  0  0
   -2.2864   -0.9334    0.8281 N   0  0  0  0  0  0  0  0  0  0  0  0
   -2.1203    0.1939    1.7435 C   0  0  0  0  0  0  0  0  0  0  0  0
   -0.6825    0.7393    1.7595 C   0  0  0  0  0  0  0  0  0  0  0  0
   -0.0622    0.8422    0.3435 C   0  0  2  0  0  0  0  0  0  0  0  0
    0.9038   -0.2887    0.1455 C   0  0  0  0  0  0  0  0  0  0  0  0
    0.6139   -1.5519   -0.3432 C   0  0  0  0  0  0  0  0  0  0  0  0
    1.6699   -2.4629   -0.4318 C   0  0  0  0  0  0  0  0  0  0  0  0
    2.9773   -2.0787   -0.0677 C   0  0  0  0  0  0  0  0  0  0  0  0
    3.2416   -0.7688    0.3442 C   0  0  0  0  0  0  0  0  0  0  0  0
    4.5056   -0.3501    0.6252 O   0  0  0  0  0  0  0  0  0  0  0  0
    2.1910    0.1187    0.4239 C   0  0  0  0  0  0  0  0  0  0  0  0
    2.2671    1.4644    0.6836 O   0  0  0  0  0  0  0  0  0  0  0  0
    0.9693    1.9847    0.2237 C   0  0  1  0  0  0  0  0  0  0  0  0
    1.1113    2.5955   -1.2043 C   0  0  1  0  0  0  0  0  0  0  0  0
    2.4746    2.7265   -1.6055 O   0  0  0  0  0  0  0  0  0  0  0  0
    0.3776    1.8926   -2.3103 C   0  0  0  0  0  0  0  0  0  0  0  0
   -0.6547    1.0591   -2.1094 C   0  0  0  0  0  0  0  0  0  0  0  0
   -1.1590    0.7404   -0.7232 C   0  0  1  0  0  0  0  0  0  0  0  0
   -1.7916   -0.6863   -0.5543 C   0  0  1  0  0  0  0  0  0  0  0  0
   -0.7689   -1.8234   -0.8766 C   0  0  0  0  0  0  0  0  0  0  0  0
   -3.7457   -2.3374    0.2273 H   0  0  0  0  0  0  0  0  0  0  0  0
   -3.9648   -1.7068    1.8523 H   0  0  0  0  0  0  0  0  0  0  0  0
   -4.3661   -0.6864    0.4539 H   0  0  0  0  0  0  0  0  0  0  0  0
   -2.3758   -0.1140    2.7652 H   0  0  0  0  0  0  0  0  0  0  0  0
   -2.8142    1.0052    1.4858 H   0  0  0  0  0  0  0  0  0  0  0  0
   -0.7242    1.7315    2.2262 H   0  0  0  0  0  0  0  0  0  0  0  0
   -0.0682    0.1146    2.4217 H   0  0  0  0  0  0  0  0  0  0  0  0
    1.4938   -3.4678   -0.8084 H   0  0  0  0  0  0  0  0  0  0  0  0
    3.7783   -2.8069   -0.1541 H   0  0  0  0  0  0  0  0  0  0  0  0
    5.1104   -1.1026    0.5290 H   0  0  0  0  0  0  0  0  0  0  0  0
    0.7172    2.8080    0.9038 H   0  0  0  0  0  0  0  0  0  0  0  0
    0.7075    3.6151   -1.1724 H   0  0  0  0  0  0  0  0  0  0  0  0
    3.0001    2.2008   -0.9696 H   0  0  0  0  0  0  0  0  0  0  0  0
    0.6915    2.1238   -3.3256 H   0  0  0  0  0  0  0  0  0  0  0  0
   -1.1712    0.6285   -2.9635 H   0  0  0  0  0  0  0  0  0  0  0  0
   -1.9402    1.4896   -0.5302 H   0  0  0  0  0  0  0  0  0  0  0  0
   -2.6229   -0.7720   -1.2678 H   0  0  0  0  0  0  0  0  0  0  0  0
   -1.1315   -2.7883   -0.5006 H   0  0  0  0  0  0  0  0  0  0  0  0
   -0.6918   -1.9169   -1.9677 H   0  0  0  0  0  0  0  0  0  0  0  0
  1  2  1  0
  2  3  1  0
  3  4  1  0
  5  4  1  1
  5  6  1  0
  6  7  2  0
  7  8  1  0
  8  9  2  0
  9 10  1  0
 10 11  1  0
 10 12  2  0
 12 13  1  0
 13 14  1  0
 14 15  1  0
 15 16  1  0
 15 17  1  0
 17 18  2  0
 18 19  1  0
 19 20  1  0
 20 21  1  0
 20  2  1  0
 14  5  1  0
 19  5  1  0
 12  6  1  0
 21  7  1  0
  1 22  1  0
  1 23  1  0
  1 24  1  0
  3 25  1  0
  3 26  1  0
  4 27  1  0
  4 28  1  0
  8 29  1  0
  9 30  1  0
 11 31  1  0
 14 32  1  1
 15 33  1  1
 16 34  1  0
 17 35  1  0
 18 36  1  0
 19 37  1  1
 20 38  1  6
 21 39  1  0
 21 40  1  0
M  END
$$$$
