
     RDKit          2D

 42 47  0  0  0  0  0  0  0  0999 V2000
    2.7760    0.0000    0.0000 O   0  0  0  0  0  0  0  0  0  0  0  0
    1.2760    0.0000    0.0000 C   0  0  0  0  0  0  0  0  0  0  0  0
    0.3943    1.2135    0.0000 C   0  0  0  0  0  0  0  0  0  0  0  0
   -1.0323    0.7500    0.0000 N   0  0  0  0  0  0  0  0  0  0  0  0
   -1.0323   -0.7500    0.0000 C   0  0  0  0  0  0  0  0  0  0  0  0
    0.3943   -1.2135    0.0000 C   0  0  0  0  0  0  0  0  0  0  0  0
    0.3943   -2.7135    0.0000 C   0  0  0  0  0  0  0  0  0  0  0  0
   -1.0323   -3.1771    0.0000 C   0  0  0  0  0  0  0  0  0  0  0  0
   -1.6424   -4.5474    0.0000 C   0  0  0  0  0  0  0  0  0  0  0  0
   -3.1342   -4.7042    0.0000 C   0  0  0  0  0  0  0  0  0  0  0  0
   -4.0159   -3.4906    0.0000 C   0  0  0  0  0  0  0  0  0  0  0  0
   -5.5076   -3.6474    0.0000 O   0  0  0  0  0  0  0  0  0  0  0  0
   -3.4057   -2.1203    0.0000 C   0  0  0  0  0  0  0  0  0  0  0  0
   -1.9140   -1.9635    0.0000 C   0  0  0  0  0  0  0  0  0  0  0  0
    0.2451   -0.0363    0.0000 C   0  0  0  0  0  0  0  0  0  0  0  0
    0.8936    1.3163    0.0000 C   0  0  0  0  0  0  0  0  0  0  0  0
    2.3892    1.4310    0.0000 C   0  0  0  0  0  0  0  0  0  0  0  0
    3.0376    2.7836    0.0000 C   0  0  0  0  0  0  0  0  0  0  0  0
    2.1905    4.0215    0.0000 C   0  0  0  0  0  0  0  0  0  0  0  0
    2.8389    5.3741    0.0000 O   0  0  0  0  0  0  0  0  0  0  0  0
    0.6949    3.9068    0.0000 C   0  0  0  0  0  0  0  0  0  0  0  0
    0.0464    2.5542    0.0000 C   0  0  0  0  0  0  0  0  0  0  0  0
    1.6581   -0.5398    0.0000 C   0  0  0  0  0  0  0  0  0  0  0  0
    2.8136   -1.4962    0.0000 C   0  0  0  0  0  0  0  0  0  0  0  0
    1.4076   -2.0187    0.0000 C   0  0  0  0  0  0  0  0  0  0  0  0
   -0.5293    2.3955    0.0000 H   0  0  0  0  0  0  0  0  0  0  0  0
    1.6933    1.9635    0.0000 H   0  0  0  0  0  0  0  0  0  0  0  0
    1.4913   -3.7366    0.0000 H   0  0  0  0  0  0  0  0  0  0  0  0
   -0.7607   -5.7609    0.0000 H   0  0  0  0  0  0  0  0  0  0  0  0
   -3.7443   -6.0745    0.0000 H   0  0  0  0  0  0  0  0  0  0  0  0
   -6.3893   -2.4339    0.0000 H   0  0  0  0  0  0  0  0  0  0  0  0
   -4.2874   -0.9068    0.0000 H   0  0  0  0  0  0  0  0  0  0  0  0
    3.3809    0.3056    0.0000 H   0  0  0  0  0  0  0  0  0  0  0  0
    4.5332    2.8983    0.0000 H   0  0  0  0  0  0  0  0  0  0  0  0
    1.9918    6.6120    0.0000 H   0  0  0  0  0  0  0  0  0  0  0  0
   -0.1523    5.1446    0.0000 H   0  0  0  0  0  0  0  0  0  0  0  0
   -1.4492    2.4395    0.0000 H   0  0  0  0  0  0  0  0  0  0  0  0
    2.8175    0.4119    0.0000 H   0  0  0  0  0  0  0  0  0  0  0  0
    3.9562   -0.5243    0.0000 H   0  0  0  0  0  0  0  0  0  0  0  0
    3.5724   -2.7902    0.0000 H   0  0  0  0  0  0  0  0  0  0  0  0
    1.8558   -3.4502    0.0000 H   0  0  0  0  0  0  0  0  0  0  0  0
   -0.0924   -2.0288    0.0000 H   0  0  0  0  0  0  0  0  0  0  0  0
  1  2  2  0
  2  3  1  0
  3  4  1  0
  4  5  1  0
  5  6  2  0
  6  7  1  0
  7  8  1  0
  8  9  1  0
  9 10  2  0
 10 11  1  0
 11 12  1  0
 11 13  2  0
 13 14  1  0
  7 15  1  0
 15 16  1  0
 16 17  1  0
 17 18  2  0
 18 19  1  0
 19 20  1  0
 19 21  2  0
 21 22  1  0
 15 23  1  0
 23 24  1  0
 24 25  1  0
  6  2  1  0
 14  8  2  0
 22 16  2  0
 25 23  1  0
 15  4  1  0
 14  5  1  0
  3 26  1  0
  3 27  1  0
  7 28  1  0
  9 29  1  0
 10 30  1  0
 12 31  1  0
 13 32  1  0
 17 33  1  0
 18 34  1  0
 20 35  1  0
 21 36  1  0
 22 37  1  0
 23 38  1  0
 24 39  1  0
 24 40  1  0
 25 41  1  0
 25 42  1  0
M  END
$$$$
