
     RDKit          3D

 35 37  0  0  0  0  0  0  0  0999 V2000
    4.7027    1.1650   -0.4799 C   0  0  0  0  0  0  0  0  0  0  0  0
    3.3378    0.5229   -0.6708 C   0  0  0  0  0  0  0  0  0  0  0  0
    2.7076    0.1433    0.6700 C   0  0  0  0  0  0  0  0  0  0  0  0
    1.3576   -0.5115    0.4891 C   0  0  0  0  0  0  0  0  0  0  0  0
    0.1663    0.2352    0.3287 C   0  0  0  0  0  0  0  0  0  0  0  0
    0.0889    1.6591    0.3270 C   0  0  0  0  0  0  0  0  0  0  0  0
   -1.1197    2.3379    0.1483 C   0  0  0  0  0  0  0  0  0  0  0  0
   -2.2661    1.5888   -0.0162 C   0  0  0  0  0  0  0  0  0  0  0  0
   -2.2310    0.1953   -0.0005 C   0  0  0  0  0  0  0  0  0  0  0  0
   -1.0262   -0.5048    0.1526 C   0  0  0  0  0  0  0  0  0  0  0  0
   -0.9783   -1.9053    0.1467 C   0  0  0  0  0  0  0  0  0  0  0  0
    0.2401   -2.5462    0.3051 C   0  0  0  0  0  0  0  0  0  0  0  0
    1.3973   -1.8718    0.4683 N   0  0  0  0  0  0  0  0  0  0  0  0
    0.3096   -4.0433    0.3044 C   0  0  0  0  0  0  0  0  0  0  0  0
   -3.5111   -0.3937   -0.2650 N   0  0  0  0  0  0  0  0  0  0  0  0
   -4.4340    0.7530   -0.1227 C   0  0  0  0  0  0  0  0  0  0  0  0
   -3.6463    2.0567   -0.3088 C   0  0  0  0  0  0  0  0  0  0  0  0
    5.1377    1.4262   -1.4496 H   0  0  0  0  0  0  0  0  0  0  0  0
    4.6252    2.0804    0.1154 H   0  0  0  0  0  0  0  0  0  0  0  0
    5.3906    0.4813    0.0278 H   0  0  0  0  0  0  0  0  0  0  0  0
    3.4448   -0.3690   -1.3004 H   0  0  0  0  0  0  0  0  0  0  0  0
    2.6898    1.2179   -1.2174 H   0  0  0  0  0  0  0  0  0  0  0  0
    2.6274    1.0126    1.3322 H   0  0  0  0  0  0  0  0  0  0  0  0
    3.3696   -0.5603    1.1922 H   0  0  0  0  0  0  0  0  0  0  0  0
    0.9879    2.2581    0.4529 H   0  0  0  0  0  0  0  0  0  0  0  0
   -1.1469    3.4225    0.1263 H   0  0  0  0  0  0  0  0  0  0  0  0
   -1.8887   -2.4859    0.0314 H   0  0  0  0  0  0  0  0  0  0  0  0
    1.3414   -4.3857    0.4339 H   0  0  0  0  0  0  0  0  0  0  0  0
   -0.2899   -4.4502    1.1246 H   0  0  0  0  0  0  0  0  0  0  0  0
   -0.0636   -4.4390   -0.6453 H   0  0  0  0  0  0  0  0  0  0  0  0
   -3.4876   -0.7344   -1.2267 H   0  0  0  0  0  0  0  0  0  0  0  0
   -5.2619    0.6784   -0.8359 H   0  0  0  0  0  0  0  0  0  0  0  0
   -4.8687    0.7194    0.8848 H   0  0  0  0  0  0  0  0  0  0  0  0
   -3.7137    2.4111   -1.3425 H   0  0  0  0  0  0  0  0  0  0  0  0
   -3.9888    2.8361    0.3774 H   0  0  0  0  0  0  0  0  0  0  0  0
  1  2  1  0
  2  3  1  0
  3  4  1  0
  4  5  2  0
  5  6  1  0
  6  7  2  0
  7  8  1  0
  8  9  2  0
  9 10  1  0
 10 11  2  0
 11 12  1  0
 12 13  2  0
 12 14  1  0
  9 15  1  0
 15 16  1  0
 16 17  1  0
 13  4  1  0
 10  5  1  0
 17  8  1  0
  1 18  1  0
  1 19  1  0
  1 20  1  0
  2 21  1  0
  2 22  1  0
  3 23  1  0
  3 24  1  0
  6 25  1  0
  7 26  1  0
 11 27  1  0
 14 28  1  0
 14 29  1  0
 14 30  1  0
 15 31  1  0
 16 32  1  0
 16 33  1  0
 17 34  1  0
 17 35  1  0
M  END
$$$$
