
     RDKit          3D

 55 58  0  0  0  0  0  0  0  0999 V2000
   -2.7242    4.3923   -2.1387 C   0  0  0  0  0  0  0  0  0  0  0  0
   -2.7662    3.0707   -1.4313 C   0  0  0  0  0  0  0  0  0  0  0  0
   -3.4293    2.9419   -0.2082 C   0  0  0  0  0  0  0  0  0  0  0  0
   -3.4367    1.7191    0.4680 C   0  0  0  0  0  0  0  0  0  0  0  0
   -2.7781    0.5970   -0.0603 C   0  0  0  0  0  0  0  0  0  0  0  0
   -2.1014    0.7390   -1.2789 C   0  0  0  0  0  0  0  0  0  0  0  0
   -2.0914    1.9636   -1.9537 C   0  0  0  0  0  0  0  0  0  0  0  0
   -2.7869   -0.7057    0.7269 C   0  0  1  0  0  0  0  0  0  0  0  0
   -2.8785   -1.9772   -0.1363 C   0  0  0  0  0  0  0  0  0  0  0  0
   -3.0665   -3.2255    0.7380 C   0  0  1  0  0  0  0  0  0  0  0  0
   -3.1498   -4.4815   -0.1287 C   0  0  0  0  0  0  0  0  0  0  0  0
   -1.9461   -3.3610    1.7749 C   0  0  0  0  0  0  0  0  0  0  0  0
   -1.7440   -2.0908    2.6019 C   0  0  0  0  0  0  0  0  0  0  0  0
   -1.6552   -0.7796    1.7913 C   0  0  1  0  0  0  0  0  0  0  0  0
   -0.2595   -0.4793    1.2856 C   0  0  0  0  0  0  0  0  0  0  0  0
    0.4995   -1.3045    0.4839 C   0  0  0  0  0  0  0  0  0  0  0  0
    1.7380   -1.0080    0.0375 N   0  0  0  0  0  0  0  0  0  0  0  0
    2.2479    0.1815    0.4089 C   0  0  0  0  0  0  0  0  0  0  0  0
    1.5976    1.0692    1.1823 N   0  0  0  0  0  0  0  0  0  0  0  0
    0.3612    0.7196    1.5917 C   0  0  0  0  0  0  0  0  0  0  0  0
    3.6034    0.5326   -0.0634 C   0  0  0  0  0  0  0  0  0  0  0  0
    4.3558   -0.3488   -0.8633 C   0  0  0  0  0  0  0  0  0  0  0  0
    5.6412   -0.0205   -1.3122 C   0  0  0  0  0  0  0  0  0  0  0  0
    6.2216    1.2067   -0.9714 C   0  0  0  0  0  0  0  0  0  0  0  0
    5.4860    2.0989   -0.1808 C   0  0  0  0  0  0  0  0  0  0  0  0
    4.2013    1.7641    0.2644 C   0  0  0  0  0  0  0  0  0  0  0  0
    7.6002    1.5819   -1.4544 C   0  0  0  0  0  0  0  0  0  0  0  0
    7.5733    2.5862   -2.3740 F   0  0  0  0  0  0  0  0  0  0  0  0
    8.2699    0.5533   -2.0463 F   0  0  0  0  0  0  0  0  0  0  0  0
    8.4080    2.0195   -0.4484 F   0  0  0  0  0  0  0  0  0  0  0  0
   -1.8825    4.9873   -1.7711 H   0  0  0  0  0  0  0  0  0  0  0  0
   -2.6145    4.2553   -3.2195 H   0  0  0  0  0  0  0  0  0  0  0  0
   -3.6520    4.9507   -1.9748 H   0  0  0  0  0  0  0  0  0  0  0  0
   -3.9442    3.7947    0.2288 H   0  0  0  0  0  0  0  0  0  0  0  0
   -3.9634    1.6520    1.4177 H   0  0  0  0  0  0  0  0  0  0  0  0
   -1.5534   -0.0905   -1.7179 H   0  0  0  0  0  0  0  0  0  0  0  0
   -1.5444    2.0463   -2.8904 H   0  0  0  0  0  0  0  0  0  0  0  0
   -3.7322   -0.6956    1.2937 H   0  0  0  0  0  0  0  0  0  0  0  0
   -1.9904   -2.0981   -0.7655 H   0  0  0  0  0  0  0  0  0  0  0  0
   -3.7296   -1.8891   -0.8246 H   0  0  0  0  0  0  0  0  0  0  0  0
   -4.0196   -3.1284    1.2754 H   0  0  0  0  0  0  0  0  0  0  0  0
   -3.3172   -5.3696    0.4896 H   0  0  0  0  0  0  0  0  0  0  0  0
   -2.2269   -4.6343   -0.6985 H   0  0  0  0  0  0  0  0  0  0  0  0
   -3.9788   -4.4080   -0.8403 H   0  0  0  0  0  0  0  0  0  0  0  0
   -1.0093   -3.6447    1.2861 H   0  0  0  0  0  0  0  0  0  0  0  0
   -2.1823   -4.1876    2.4572 H   0  0  0  0  0  0  0  0  0  0  0  0
   -0.8634   -2.2088    3.2455 H   0  0  0  0  0  0  0  0  0  0  0  0
   -2.6047   -2.0049    3.2797 H   0  0  0  0  0  0  0  0  0  0  0  0
   -1.8762    0.0127    2.5238 H   0  0  0  0  0  0  0  0  0  0  0  0
    0.1401   -2.2659    0.1379 H   0  0  0  0  0  0  0  0  0  0  0  0
   -0.1355    1.4743    2.1968 H   0  0  0  0  0  0  0  0  0  0  0  0
    3.9369   -1.3141   -1.1463 H   0  0  0  0  0  0  0  0  0  0  0  0
    6.1840   -0.7353   -1.9294 H   0  0  0  0  0  0  0  0  0  0  0  0
    5.9094    3.0636    0.0963 H   0  0  0  0  0  0  0  0  0  0  0  0
    3.6586    2.4830    0.8780 H   0  0  0  0  0  0  0  0  0  0  0  0
  1  2  1  0
  2  3  1  0
  3  4  2  0
  4  5  1  0
  5  6  2  0
  6  7  1  0
  5  8  1  0
  8  9  1  0
  9 10  1  0
 10 11  1  0
 10 12  1  0
 12 13  1  0
 13 14  1  0
 14 15  1  0
 15 16  2  0
 16 17  1  0
 17 18  2  0
 18 19  1  0
 19 20  2  0
 18 21  1  0
 21 22  1  0
 22 23  2  0
 23 24  1  0
 24 25  2  0
 25 26  1  0
 24 27  1  0
 27 28  1  0
 27 29  1  0
 27 30  1  0
  7  2  2  0
 14  8  1  0
 20 15  1  0
 26 21  2  0
  1 31  1  0
  1 32  1  0
  1 33  1  0
  3 34  1  0
  4 35  1  0
  6 36  1  0
  7 37  1  0
  8 38  1  1
  9 39  1  0
  9 40  1  0
 10 41  1  1
 11 42  1  0
 11 43  1  0
 11 44  1  0
 12 45  1  0
 12 46  1  0
 13 47  1  0
 13 48  1  0
 14 49  1  1
 16 50  1  0
 20 51  1  0
 22 52  1  0
 23 53  1  0
 25 54  1  0
 26 55  1  0
M  END
$$$$
