
     RDKit          3D

 92 91  0  0  0  0  0  0  0  0999 V2000
   -4.6328   -2.3420   -5.4342 C   0  0  0  0  0  0  0  0  0  0  0  0
   -3.6857   -2.1914   -4.2416 C   0  0  0  0  0  0  0  0  0  0  0  0
   -2.2542   -1.9933   -4.7388 C   0  0  0  0  0  0  0  0  0  0  0  0
   -4.1403   -1.0275   -3.3465 C   0  0  0  0  0  0  0  0  0  0  0  0
   -3.5091   -1.0518   -1.9614 C   0  0  0  0  0  0  0  0  0  0  0  0
   -2.8168   -1.9713   -1.5457 O   0  0  0  0  0  0  0  0  0  0  0  0
   -3.8529    0.0535   -1.1980 N   0  0  0  0  0  0  0  0  0  0  0  0
   -3.2054    0.3587    0.0855 C   0  0  1  0  0  0  0  0  0  0  0  0
   -3.2965   -0.7543    1.1431 C   0  0  0  0  0  0  0  0  0  0  0  0
   -4.7172   -1.0093    1.6875 C   0  0  0  0  0  0  0  0  0  0  0  0
   -5.7481   -1.3779    0.6250 C   0  0  0  0  0  0  0  0  0  0  0  0
   -7.0095   -1.8489    1.1841 N   0  0  0  0  0  0  0  0  0  0  0  0
   -7.9044   -0.9797    1.7164 C   0  0  0  0  0  0  0  0  0  0  0  0
   -7.6164    0.1432    2.2620 N   0  0  0  0  0  0  0  0  0  0  0  0
   -9.1695   -1.3869    1.5029 N   0  0  0  0  0  0  0  0  0  0  0  0
   -1.7912    0.9176   -0.2473 C   0  0  0  0  0  0  0  0  0  0  0  0
   -1.4963    1.2737   -1.3951 O   0  0  0  0  0  0  0  0  0  0  0  0
   -0.9465    1.1610    0.8188 N   0  0  0  0  0  0  0  0  0  0  0  0
    0.4039    1.6749    0.5880 C   0  0  1  0  0  0  0  0  0  0  0  0
    0.6965    2.8135    1.5746 C   0  0  0  0  0  0  0  0  0  0  0  0
    1.9120    3.6448    1.1596 C   0  0  0  0  0  0  0  0  0  0  0  0
    2.1026    4.8690    2.0535 C   0  0  0  0  0  0  0  0  0  0  0  0
    3.2233    5.6408    1.5603 N   0  0  0  0  0  0  0  0  0  0  0  0
    3.5245    6.8948    1.9539 C   0  0  0  0  0  0  0  0  0  0  0  0
    2.8444    7.6905    2.6915 N   0  0  0  0  0  0  0  0  0  0  0  0
    4.6989    7.3068    1.4428 N   0  0  0  0  0  0  0  0  0  0  0  0
    1.3828    0.4989    0.7678 C   0  0  0  0  0  0  0  0  0  0  0  0
    1.1894   -0.3926    1.5933 O   0  0  0  0  0  0  0  0  0  0  0  0
    2.4999    0.5461   -0.0404 N   0  0  0  0  0  0  0  0  0  0  0  0
    3.6032   -0.4128    0.1167 C   0  0  1  0  0  0  0  0  0  0  0  0
    4.2290   -0.6803   -1.2588 C   0  0  0  0  0  0  0  0  0  0  0  0
    5.2656   -1.8116   -1.3055 C   0  0  0  0  0  0  0  0  0  0  0  0
    4.7934   -3.1597   -0.7560 C   0  0  0  0  0  0  0  0  0  0  0  0
    3.5129   -3.5294   -1.3159 N   0  0  0  0  0  0  0  0  0  0  0  0
    2.8323   -4.6441   -0.9785 C   0  0  0  0  0  0  0  0  0  0  0  0
    3.0944   -5.4961   -0.0590 N   0  0  0  0  0  0  0  0  0  0  0  0
    1.7375   -4.8006   -1.7470 N   0  0  0  0  0  0  0  0  0  0  0  0
    4.6343    0.2147    1.0677 C   0  0  0  0  0  0  0  0  0  0  0  0
    4.8327    1.4204    1.1731 O   0  0  0  0  0  0  0  0  0  0  0  0
    5.3286   -0.7568    1.7311 O   0  0  0  0  0  0  0  0  0  0  0  0
    6.3219   -0.2894    2.6537 C   0  0  0  0  0  0  0  0  0  0  0  0
    5.6847    0.0349    3.9906 C   0  0  0  0  0  0  0  0  0  0  0  0
   -5.6673   -2.4821   -5.0988 H   0  0  0  0  0  0  0  0  0  0  0  0
   -4.3642   -3.2212   -6.0353 H   0  0  0  0  0  0  0  0  0  0  0  0
   -4.5966   -1.4685   -6.0951 H   0  0  0  0  0  0  0  0  0  0  0  0
   -3.7258   -3.1267   -3.6707 H   0  0  0  0  0  0  0  0  0  0  0  0
   -2.1468   -1.0482   -5.2873 H   0  0  0  0  0  0  0  0  0  0  0  0
   -1.9582   -2.8058   -5.4125 H   0  0  0  0  0  0  0  0  0  0  0  0
   -1.5425   -1.9861   -3.9090 H   0  0  0  0  0  0  0  0  0  0  0  0
   -5.2277   -1.0804   -3.1913 H   0  0  0  0  0  0  0  0  0  0  0  0
   -3.9167   -0.0664   -3.8272 H   0  0  0  0  0  0  0  0  0  0  0  0
   -4.0911    0.8750   -1.7431 H   0  0  0  0  0  0  0  0  0  0  0  0
   -3.7573    1.2273    0.4717 H   0  0  0  0  0  0  0  0  0  0  0  0
   -2.8775   -1.6933    0.7718 H   0  0  0  0  0  0  0  0  0  0  0  0
   -2.6781   -0.4892    2.0115 H   0  0  0  0  0  0  0  0  0  0  0  0
   -4.6599   -1.8122    2.4366 H   0  0  0  0  0  0  0  0  0  0  0  0
   -5.0387   -0.1135    2.2323 H   0  0  0  0  0  0  0  0  0  0  0  0
   -5.9616   -0.5250   -0.0269 H   0  0  0  0  0  0  0  0  0  0  0  0
   -5.3396   -2.1762   -0.0040 H   0  0  0  0  0  0  0  0  0  0  0  0
   -7.4537   -2.4894    0.5376 H   0  0  0  0  0  0  0  0  0  0  0  0
   -8.4706    0.6306    2.5274 H   0  0  0  0  0  0  0  0  0  0  0  0
   -9.8462   -0.8785    2.0648 H   0  0  0  0  0  0  0  0  0  0  0  0
   -9.2885   -2.3822    1.6669 H   0  0  0  0  0  0  0  0  0  0  0  0
   -1.0298    0.5577    1.6268 H   0  0  0  0  0  0  0  0  0  0  0  0
    0.4814    2.0467   -0.4394 H   0  0  0  0  0  0  0  0  0  0  0  0
    0.8383    2.4148    2.5875 H   0  0  0  0  0  0  0  0  0  0  0  0
   -0.1801    3.4725    1.6184 H   0  0  0  0  0  0  0  0  0  0  0  0
    2.8167    3.0276    1.1990 H   0  0  0  0  0  0  0  0  0  0  0  0
    1.7955    3.9692    0.1179 H   0  0  0  0  0  0  0  0  0  0  0  0
    1.1892    5.4726    2.0354 H   0  0  0  0  0  0  0  0  0  0  0  0
    2.2887    4.5588    3.0872 H   0  0  0  0  0  0  0  0  0  0  0  0
    4.0590    5.0842    1.4042 H   0  0  0  0  0  0  0  0  0  0  0  0
    1.9875    7.2321    2.9871 H   0  0  0  0  0  0  0  0  0  0  0  0
    4.7869    7.1047    0.4559 H   0  0  0  0  0  0  0  0  0  0  0  0
    4.8040    8.3033    1.6081 H   0  0  0  0  0  0  0  0  0  0  0  0
    2.7171    1.4208   -0.5017 H   0  0  0  0  0  0  0  0  0  0  0  0
    3.2015   -1.3237    0.5745 H   0  0  0  0  0  0  0  0  0  0  0  0
    4.7055    0.2363   -1.6364 H   0  0  0  0  0  0  0  0  0  0  0  0
    3.4293   -0.9105   -1.9752 H   0  0  0  0  0  0  0  0  0  0  0  0
    5.5641   -1.9456   -2.3545 H   0  0  0  0  0  0  0  0  0  0  0  0
    6.1752   -1.5057   -0.7719 H   0  0  0  0  0  0  0  0  0  0  0  0
    4.7318   -3.1132    0.3373 H   0  0  0  0  0  0  0  0  0  0  0  0
    5.5393   -3.9222   -0.9997 H   0  0  0  0  0  0  0  0  0  0  0  0
    3.4003   -3.3133   -2.3049 H   0  0  0  0  0  0  0  0  0  0  0  0
    3.9480   -5.2263    0.4272 H   0  0  0  0  0  0  0  0  0  0  0  0
    1.1310   -3.9912   -1.6951 H   0  0  0  0  0  0  0  0  0  0  0  0
    1.2196   -5.6055   -1.4033 H   0  0  0  0  0  0  0  0  0  0  0  0
    6.8676    0.5687    2.2463 H   0  0  0  0  0  0  0  0  0  0  0  0
    7.0486   -1.0974    2.7792 H   0  0  0  0  0  0  0  0  0  0  0  0
    4.9908    0.8766    3.9042 H   0  0  0  0  0  0  0  0  0  0  0  0
    6.4423    0.2885    4.7375 H   0  0  0  0  0  0  0  0  0  0  0  0
    5.1036   -0.8191    4.3549 H   0  0  0  0  0  0  0  0  0  0  0  0
  1  2  1  0
  2  3  1  0
  2  4  1  0
  4  5  1  0
  5  6  2  0
  5  7  1  0
  7  8  1  0
  8  9  1  0
  9 10  1  0
 10 11  1  0
 11 12  1  0
 12 13  1  0
 13 14  2  3
 13 15  1  0
  8 16  1  0
 16 17  2  0
 16 18  1  0
 18 19  1  0
 19 20  1  0
 20 21  1  0
 21 22  1  0
 22 23  1  0
 23 24  1  0
 24 25  2  3
 24 26  1  0
 19 27  1  0
 27 28  2  0
 27 29  1  0
 29 30  1  0
 30 31  1  0
 31 32  1  0
 32 33  1  0
 33 34  1  0
 34 35  1  0
 35 36  2  3
 35 37  1  0
 30 38  1  0
 38 39  2  0
 38 40  1  0
 40 41  1  0
 41 42  1  0
  1 43  1  0
  1 44  1  0
  1 45  1  0
  2 46  1  0
  3 47  1  0
  3 48  1  0
  3 49  1  0
  4 50  1  0
  4 51  1  0
  7 52  1  0
  8 53  1  1
  9 54  1  0
  9 55  1  0
 10 56  1  0
 10 57  1  0
 11 58  1  0
 11 59  1  0
 12 60  1  0
 14 61  1  0
 15 62  1  0
 15 63  1  0
 18 64  1  0
 19 65  1  6
 20 66  1  0
 20 67  1  0
 21 68  1  0
 21 69  1  0
 22 70  1  0
 22 71  1  0
 23 72  1  0
 25 73  1  0
 26 74  1  0
 26 75  1  0
 29 76  1  0
 30 77  1  1
 31 78  1  0
 31 79  1  0
 32 80  1  0
 32 81  1  0
 33 82  1  0
 33 83  1  0
 34 84  1  0
 36 85  1  0
 37 86  1  0
 37 87  1  0
 41 88  1  0
 41 89  1  0
 42 90  1  0
 42 91  1  0
 42 92  1  0
M  END
$$$$
