
     RDKit          3D

 58 61  0  0  0  0  0  0  0  0999 V2000
    0.2238   -2.8499    2.4082 C   0  0  0  0  0  0  0  0  0  0  0  0
   -0.4082   -1.4963    2.0858 C   0  0  1  0  0  0  0  0  0  0  0  0
    0.3299   -0.9281    0.9978 O   0  0  0  0  0  0  0  0  0  0  0  0
    0.2500    0.5034    0.9476 C   0  0  1  0  0  0  0  0  0  0  0  0
    0.8269    1.0698    2.1403 O   0  0  0  0  0  0  0  0  0  0  0  0
    2.2184    1.3916    2.0119 C   0  0  0  0  0  0  0  0  0  0  0  0
    2.9583    0.5494    0.9588 C   0  0  0  0  0  0  0  0  0  0  0  0
    2.4274    0.7304   -0.4244 N   0  0  0  0  0  0  0  0  0  0  0  0
    2.6989   -0.4934   -1.2166 C   0  0  0  0  0  0  0  0  0  0  0  0
    4.1873   -0.6818   -1.3800 C   0  0  0  0  0  0  0  0  0  0  0  0
    4.8532   -1.7553   -1.0598 N   0  0  0  0  0  0  0  0  0  0  0  0
    6.1484   -1.4345   -1.3809 N   0  0  0  0  0  0  0  0  0  0  0  0
    6.2238   -0.1319   -1.8555 C   0  0  0  0  0  0  0  0  0  0  0  0
    7.2267    0.4965   -2.1398 O   0  0  0  0  0  0  0  0  0  0  0  0
    4.9382    0.3094   -1.8992 N   0  0  0  0  0  0  0  0  0  0  0  0
    0.9673    1.0726   -0.3379 C   0  0  1  0  0  0  0  0  0  0  0  0
    0.1998    0.9501   -1.6524 C   0  0  0  0  0  0  0  0  0  0  0  0
   -0.5613   -0.1838   -1.9787 C   0  0  0  0  0  0  0  0  0  0  0  0
   -1.2456   -0.2614   -3.1940 C   0  0  0  0  0  0  0  0  0  0  0  0
   -1.1644    0.7909   -4.0956 C   0  0  0  0  0  0  0  0  0  0  0  0
   -1.8191    0.7149   -5.2614 F   0  0  0  0  0  0  0  0  0  0  0  0
   -0.4061    1.9175   -3.8085 C   0  0  0  0  0  0  0  0  0  0  0  0
    0.2775    1.9956   -2.5937 C   0  0  0  0  0  0  0  0  0  0  0  0
   -1.8726   -1.6373    1.7080 C   0  0  0  0  0  0  0  0  0  0  0  0
   -2.8553   -0.9594    2.4457 C   0  0  0  0  0  0  0  0  0  0  0  0
   -4.2156   -1.0570    2.1089 C   0  0  0  0  0  0  0  0  0  0  0  0
   -5.2552   -0.3023    2.9052 C   0  0  0  0  0  0  0  0  0  0  0  0
   -5.4308    0.9675    2.4487 F   0  0  0  0  0  0  0  0  0  0  0  0
   -6.4837   -0.8886    2.8706 F   0  0  0  0  0  0  0  0  0  0  0  0
   -4.9344   -0.1872    4.2237 F   0  0  0  0  0  0  0  0  0  0  0  0
   -4.5874   -1.8315    0.9983 C   0  0  0  0  0  0  0  0  0  0  0  0
   -3.6241   -2.5131    0.2394 C   0  0  0  0  0  0  0  0  0  0  0  0
   -4.0144   -3.3493   -0.9568 C   0  0  0  0  0  0  0  0  0  0  0  0
   -3.2541   -3.0733   -2.0534 F   0  0  0  0  0  0  0  0  0  0  0  0
   -3.8708   -4.6825   -0.7259 F   0  0  0  0  0  0  0  0  0  0  0  0
   -5.3070   -3.1707   -1.3448 F   0  0  0  0  0  0  0  0  0  0  0  0
   -2.2738   -2.4162    0.6120 C   0  0  0  0  0  0  0  0  0  0  0  0
    1.2634   -2.7109    2.7258 H   0  0  0  0  0  0  0  0  0  0  0  0
   -0.3179   -3.3656    3.2076 H   0  0  0  0  0  0  0  0  0  0  0  0
    0.2572   -3.5051    1.5307 H   0  0  0  0  0  0  0  0  0  0  0  0
   -0.3073   -0.8750    2.9840 H   0  0  0  0  0  0  0  0  0  0  0  0
   -0.8037    0.8054    0.9272 H   0  0  0  0  0  0  0  0  0  0  0  0
    2.6768    1.2427    2.9951 H   0  0  0  0  0  0  0  0  0  0  0  0
    2.3015    2.4600    1.7805 H   0  0  0  0  0  0  0  0  0  0  0  0
    4.0187    0.8256    0.9681 H   0  0  0  0  0  0  0  0  0  0  0  0
    2.8884   -0.5020    1.2672 H   0  0  0  0  0  0  0  0  0  0  0  0
    2.3160   -0.3908   -2.2376 H   0  0  0  0  0  0  0  0  0  0  0  0
    2.2590   -1.3920   -0.7706 H   0  0  0  0  0  0  0  0  0  0  0  0
    6.9313   -2.0418   -1.1806 H   0  0  0  0  0  0  0  0  0  0  0  0
    4.6484    1.2525   -2.0913 H   0  0  0  0  0  0  0  0  0  0  0  0
    0.9708    2.1590   -0.1539 H   0  0  0  0  0  0  0  0  0  0  0  0
   -0.6150   -1.0307   -1.3028 H   0  0  0  0  0  0  0  0  0  0  0  0
   -1.8338   -1.1394   -3.4440 H   0  0  0  0  0  0  0  0  0  0  0  0
   -0.3492    2.7252   -4.5312 H   0  0  0  0  0  0  0  0  0  0  0  0
    0.8768    2.8797   -2.3829 H   0  0  0  0  0  0  0  0  0  0  0  0
   -2.5619   -0.3424    3.2965 H   0  0  0  0  0  0  0  0  0  0  0  0
   -5.6408   -1.9014    0.7212 H   0  0  0  0  0  0  0  0  0  0  0  0
   -1.5221   -2.9456    0.0252 H   0  0  0  0  0  0  0  0  0  0  0  0
  1  2  1  0
  2  3  1  0
  3  4  1  0
  4  5  1  0
  5  6  1  0
  6  7  1  0
  7  8  1  0
  8  9  1  0
  9 10  1  0
 10 11  2  0
 11 12  1  0
 12 13  1  0
 13 14  2  0
 13 15  1  0
  8 16  1  0
 16 17  1  0
 17 18  2  0
 18 19  1  0
 19 20  2  0
 20 21  1  0
 20 22  1  0
 22 23  2  0
  2 24  1  0
 24 25  2  0
 25 26  1  0
 26 27  1  0
 27 28  1  0
 27 29  1  0
 27 30  1  0
 26 31  2  0
 31 32  1  0
 32 33  1  0
 33 34  1  0
 33 35  1  0
 33 36  1  0
 32 37  2  0
 16  4  1  0
 23 17  1  0
 37 24  1  0
 15 10  1  0
  1 38  1  0
  1 39  1  0
  1 40  1  0
  2 41  1  1
  4 42  1  6
  6 43  1  0
  6 44  1  0
  7 45  1  0
  7 46  1  0
  9 47  1  0
  9 48  1  0
 12 49  1  0
 15 50  1  0
 16 51  1  1
 18 52  1  0
 19 53  1  0
 22 54  1  0
 23 55  1  0
 25 56  1  0
 31 57  1  0
 37 58  1  0
M  END
$$$$
