
     RDKit          3D

 83 89  0  0  0  0  0  0  0  0999 V2000
    1.1722   -1.2434    2.8310 C   0  0  0  0  0  0  0  0  0  0  0  0
    2.6675   -0.9640    2.9645 C   0  0  0  0  0  0  0  0  0  0  0  0
    3.4205   -1.5202    1.7594 C   0  0  0  0  0  0  0  0  0  0  0  0
    2.9823    0.5151    3.2842 C   0  0  0  0  0  0  0  0  0  0  0  0
    2.8358    1.5847    2.1783 C   0  0  1  0  0  0  0  0  0  0  0  0
    4.0365    1.5621    1.1743 C   0  0  0  0  0  0  0  0  0  0  0  0
    5.1584    1.1580    1.4676 O   0  0  0  0  0  0  0  0  0  0  0  0
    3.7788    2.1395   -0.0522 N   0  0  0  0  0  0  0  0  0  0  0  0
    4.7384    2.2655   -1.1302 C   0  0  0  0  0  0  0  0  0  0  0  0
    4.0514    3.1939   -2.1269 C   0  0  0  0  0  0  0  0  0  0  0  0
    2.5615    2.9393   -1.8857 C   0  0  0  0  0  0  0  0  0  0  0  0
    2.5010    2.7597   -0.3683 C   0  0  1  0  0  0  0  0  0  0  0  0
    1.3312    1.9167    0.1827 C   0  0  2  0  0  0  0  0  0  0  0  0
    1.1967    0.6703   -0.4700 O   0  0  0  0  0  0  0  0  0  0  0  0
    0.1245    2.6523    0.0521 O   0  0  0  0  0  0  0  0  0  0  0  0
   -0.7345    2.3099    1.1785 C   0  0  2  0  0  0  0  0  0  0  0  0
   -1.4358    1.1341    0.7124 N   0  0  0  0  0  0  0  0  0  0  0  0
   -2.2247    0.3201    1.4832 C   0  0  0  0  0  0  0  0  0  0  0  0
   -2.4171    0.5013    2.6803 O   0  0  0  0  0  0  0  0  0  0  0  0
   -2.8546   -0.8656    0.7388 C   0  0  2  0  0  0  0  0  0  0  0  0
   -1.7669   -1.7505    0.1782 C   0  0  0  0  0  0  0  0  0  0  0  0
   -1.7598   -2.1511   -1.1079 C   0  0  0  0  0  0  0  0  0  0  0  0
   -0.5898   -2.8594   -1.6824 C   0  0  0  0  0  0  0  0  0  0  0  0
    0.7067   -2.9593   -1.1585 C   0  0  0  0  0  0  0  0  0  0  0  0
    1.7188   -3.6272   -1.8621 C   0  0  0  0  0  0  0  0  0  0  0  0
    1.4837   -4.2118   -3.1152 C   0  0  0  0  0  0  0  0  0  0  0  0
    0.1900   -4.1023   -3.6283 C   0  0  0  0  0  0  0  0  0  0  0  0
   -0.3786   -4.5481   -4.8019 N   0  0  0  0  0  0  0  0  0  0  0  0
   -1.7059   -4.2050   -4.8421 C   0  0  0  0  0  0  0  0  0  0  0  0
   -2.8914   -4.6435   -6.2563 Br  0  0  0  0  0  0  0  0  0  0  0  0
   -2.0106   -3.5229   -3.6916 C   0  0  0  0  0  0  0  0  0  0  0  0
   -0.8188   -3.4514   -2.9330 C   0  0  0  0  0  0  0  0  0  0  0  0
   -3.2668   -2.9509   -3.1339 C   0  0  0  0  0  0  0  0  0  0  0  0
   -2.9511   -1.8374   -2.0658 C   0  0  1  0  0  0  0  0  0  0  0  0
   -4.1818   -1.3553   -1.3668 N   0  0  0  0  0  0  0  0  0  0  0  0
   -4.9879   -2.4251   -0.7759 C   0  0  0  0  0  0  0  0  0  0  0  0
   -3.8171   -0.3480   -0.3500 C   0  0  0  0  0  0  0  0  0  0  0  0
   -1.6108    3.5592    1.4502 C   0  0  0  0  0  0  0  0  0  0  0  0
   -2.5885    3.4390    2.6195 C   0  0  0  0  0  0  0  0  0  0  0  0
   -2.3845    4.0075    0.1997 C   0  0  0  0  0  0  0  0  0  0  0  0
    0.3681    2.0668    2.2366 C   0  0  0  0  0  0  0  0  0  0  0  0
    0.3006    2.2466    3.4422 O   0  0  0  0  0  0  0  0  0  0  0  0
    1.4995    1.6371    1.5638 N   0  0  0  0  0  0  0  0  0  0  0  0
    0.6123   -0.8203    3.6711 H   0  0  0  0  0  0  0  0  0  0  0  0
    0.7671   -0.8373    1.9030 H   0  0  0  0  0  0  0  0  0  0  0  0
    0.9851   -2.3230    2.8205 H   0  0  0  0  0  0  0  0  0  0  0  0
    3.0056   -1.5367    3.8396 H   0  0  0  0  0  0  0  0  0  0  0  0
    4.5001   -1.3883    1.8782 H   0  0  0  0  0  0  0  0  0  0  0  0
    3.1086   -1.0427    0.8264 H   0  0  0  0  0  0  0  0  0  0  0  0
    3.2341   -2.5948    1.6538 H   0  0  0  0  0  0  0  0  0  0  0  0
    2.3580    0.8097    4.1379 H   0  0  0  0  0  0  0  0  0  0  0  0
    4.0128    0.5545    3.6631 H   0  0  0  0  0  0  0  0  0  0  0  0
    2.9504    2.5567    2.6824 H   0  0  0  0  0  0  0  0  0  0  0  0
    5.6903    2.6586   -0.7621 H   0  0  0  0  0  0  0  0  0  0  0  0
    4.9006    1.2683   -1.5527 H   0  0  0  0  0  0  0  0  0  0  0  0
    4.2885    4.2380   -1.8887 H   0  0  0  0  0  0  0  0  0  0  0  0
    4.3558    3.0020   -3.1594 H   0  0  0  0  0  0  0  0  0  0  0  0
    1.9327    3.7639   -2.2338 H   0  0  0  0  0  0  0  0  0  0  0  0
    2.2579    2.0306   -2.4175 H   0  0  0  0  0  0  0  0  0  0  0  0
    2.5026    3.7488    0.1112 H   0  0  0  0  0  0  0  0  0  0  0  0
    2.0697    0.4526   -0.8369 H   0  0  0  0  0  0  0  0  0  0  0  0
   -1.0663    0.7466   -0.1484 H   0  0  0  0  0  0  0  0  0  0  0  0
   -3.4171   -1.4539    1.4750 H   0  0  0  0  0  0  0  0  0  0  0  0
   -0.9675   -2.0140    0.8623 H   0  0  0  0  0  0  0  0  0  0  0  0
    0.9530   -2.5075   -0.2021 H   0  0  0  0  0  0  0  0  0  0  0  0
    2.7141   -3.6913   -1.4257 H   0  0  0  0  0  0  0  0  0  0  0  0
    2.2739   -4.7254   -3.6523 H   0  0  0  0  0  0  0  0  0  0  0  0
    0.1027   -5.0670   -5.5218 H   0  0  0  0  0  0  0  0  0  0  0  0
   -3.8177   -3.7840   -2.6832 H   0  0  0  0  0  0  0  0  0  0  0  0
   -3.8898   -2.5273   -3.9301 H   0  0  0  0  0  0  0  0  0  0  0  0
   -2.5991   -0.9764   -2.6577 H   0  0  0  0  0  0  0  0  0  0  0  0
   -5.4858   -3.0114   -1.5546 H   0  0  0  0  0  0  0  0  0  0  0  0
   -4.4072   -3.1055   -0.1447 H   0  0  0  0  0  0  0  0  0  0  0  0
   -5.7985   -2.0073   -0.1672 H   0  0  0  0  0  0  0  0  0  0  0  0
   -3.3904    0.5156   -0.8773 H   0  0  0  0  0  0  0  0  0  0  0  0
   -4.7240    0.0488    0.1259 H   0  0  0  0  0  0  0  0  0  0  0  0
   -0.9258    4.3832    1.6977 H   0  0  0  0  0  0  0  0  0  0  0  0
   -3.0118    4.4217    2.8579 H   0  0  0  0  0  0  0  0  0  0  0  0
   -2.1018    3.0716    3.5262 H   0  0  0  0  0  0  0  0  0  0  0  0
   -3.4303    2.7828    2.3789 H   0  0  0  0  0  0  0  0  0  0  0  0
   -2.9529    4.9214    0.4051 H   0  0  0  0  0  0  0  0  0  0  0  0
   -1.7097    4.2270   -0.6336 H   0  0  0  0  0  0  0  0  0  0  0  0
   -3.0934    3.2399   -0.1281 H   0  0  0  0  0  0  0  0  0  0  0  0
  1  2  1  0
  2  3  1  0
  2  4  1  0
  4  5  1  0
  5  6  1  0
  6  7  2  0
  6  8  1  0
  8  9  1  0
  9 10  1  0
 10 11  1  0
 11 12  1  0
 12 13  1  0
 13 14  1  6
 13 15  1  0
 15 16  1  0
 16 17  1  6
 17 18  1  0
 18 19  2  0
 18 20  1  0
 20 21  1  0
 21 22  2  0
 22 23  1  0
 23 24  2  0
 24 25  1  0
 25 26  2  0
 26 27  1  0
 27 28  1  0
 28 29  1  0
 29 30  1  0
 29 31  2  0
 31 32  1  0
 31 33  1  0
 33 34  1  0
 34 35  1  0
 35 36  1  0
 35 37  1  0
 16 38  1  0
 38 39  1  0
 38 40  1  0
 16 41  1  0
 41 42  2  0
 41 43  1  0
 43  5  1  0
 12  8  1  0
 43 13  1  0
 37 20  1  0
 34 22  1  0
 32 23  1  0
 32 27  2  0
  1 44  1  0
  1 45  1  0
  1 46  1  0
  2 47  1  0
  3 48  1  0
  3 49  1  0
  3 50  1  0
  4 51  1  0
  4 52  1  0
  5 53  1  1
  9 54  1  0
  9 55  1  0
 10 56  1  0
 10 57  1  0
 11 58  1  0
 11 59  1  0
 12 60  1  1
 14 61  1  0
 17 62  1  0
 20 63  1  1
 21 64  1  0
 24 65  1  0
 25 66  1  0
 26 67  1  0
 28 68  1  0
 33 69  1  0
 33 70  1  0
 34 71  1  6
 36 72  1  0
 36 73  1  0
 36 74  1  0
 37 75  1  0
 37 76  1  0
 38 77  1  0
 39 78  1  0
 39 79  1  0
 39 80  1  0
 40 81  1  0
 40 82  1  0
 40 83  1  0
M  END
$$$$
