
     RDKit          3D

 22 22  0  0  0  0  0  0  0  0999 V2000
    0.4753    0.7805   -1.1285 C   0  0  0  0  0  0  0  0  0  0  0  0
    1.8280    1.0969   -0.9666 C   0  0  0  0  0  0  0  0  0  0  0  0
    2.5949    0.3567   -0.0758 C   0  0  0  0  0  0  0  0  0  0  0  0
    2.0224   -0.6863    0.6469 C   0  0  0  0  0  0  0  0  0  0  0  0
    0.6813   -1.0083    0.4918 C   0  0  0  0  0  0  0  0  0  0  0  0
   -0.1076   -0.2752   -0.4061 C   0  0  0  0  0  0  0  0  0  0  0  0
   -1.5730   -0.6006   -0.5713 C   0  0  0  0  0  0  0  0  0  0  0  0
   -2.4313    0.0979    0.4886 C   0  0  0  0  0  0  0  0  0  0  0  0
   -3.8508   -0.1980    0.2987 N   0  0  0  0  0  0  0  0  0  0  0  0
    2.7836   -1.4059    1.5233 O   0  0  0  0  0  0  0  0  0  0  0  0
    3.9221    0.6179    0.1266 O   0  0  0  0  0  0  0  0  0  0  0  0
   -0.1255    1.3621   -1.8250 H   0  0  0  0  0  0  0  0  0  0  0  0
    2.2551    1.9144   -1.5380 H   0  0  0  0  0  0  0  0  0  0  0  0
    0.2577   -1.8263    1.0684 H   0  0  0  0  0  0  0  0  0  0  0  0
   -1.8987   -0.3068   -1.5777 H   0  0  0  0  0  0  0  0  0  0  0  0
   -1.7099   -1.6886   -0.5162 H   0  0  0  0  0  0  0  0  0  0  0  0
   -2.2830    1.1833    0.4455 H   0  0  0  0  0  0  0  0  0  0  0  0
   -2.1340   -0.2298    1.4912 H   0  0  0  0  0  0  0  0  0  0  0  0
   -4.1617    0.1722   -0.5984 H   0  0  0  0  0  0  0  0  0  0  0  0
   -4.3920    0.2907    1.0113 H   0  0  0  0  0  0  0  0  0  0  0  0
    3.6732   -1.0054    1.4578 H   0  0  0  0  0  0  0  0  0  0  0  0
    4.1740    1.3588   -0.4507 H   0  0  0  0  0  0  0  0  0  0  0  0
  1  2  2  0
  2  3  1  0
  3  4  2  0
  4  5  1  0
  5  6  2  0
  6  7  1  0
  7  8  1  0
  8  9  1  0
  4 10  1  0
  3 11  1  0
  6  1  1  0
  1 12  1  0
  2 13  1  0
  5 14  1  0
  7 15  1  0
  7 16  1  0
  8 17  1  0
  8 18  1  0
  9 19  1  0
  9 20  1  0
 10 21  1  0
 11 22  1  0
M  END
$$$$
