
     RDKit          3D

 53 55  0  0  0  0  0  0  0  0999 V2000
   -5.3024   -2.3279    1.0607 C   0  0  0  0  0  0  0  0  0  0  0  0
   -4.8196   -1.1709    1.9165 C   0  0  0  0  0  0  0  0  0  0  0  0
   -3.2995   -1.1513    2.0111 C   0  0  0  0  0  0  0  0  0  0  0  0
   -2.7546   -1.6023    3.0231 O   0  0  0  0  0  0  0  0  0  0  0  0
   -2.5730   -0.7047    0.8961 N   0  0  0  0  0  0  0  0  0  0  0  0
   -1.0897   -0.7454    1.0087 C   0  0  0  0  0  0  0  0  0  0  0  0
   -0.3111   -0.8466   -0.3178 C   0  0  0  0  0  0  0  0  0  0  0  0
    0.2802    0.4955   -0.7431 C   0  0  0  0  0  0  0  0  0  0  0  0
    1.1537    1.0929    0.2698 N   0  0  0  0  0  0  0  0  0  0  0  0
    0.9490    0.6098    1.6356 C   0  0  0  0  0  0  0  0  0  0  0  0
   -0.5325    0.3728    1.9140 C   0  0  0  0  0  0  0  0  0  0  0  0
    2.5665    1.1910   -0.1184 C   0  0  0  0  0  0  0  0  0  0  0  0
    3.3049   -0.1424   -0.3335 C   0  0  0  0  0  0  0  0  0  0  0  0
    4.7392    0.0788   -0.7531 C   0  0  0  0  0  0  0  0  0  0  0  0
    5.0716    0.2036   -2.1087 C   0  0  0  0  0  0  0  0  0  0  0  0
    6.3944    0.4260   -2.4943 C   0  0  0  0  0  0  0  0  0  0  0  0
    7.3949    0.5298   -1.5297 C   0  0  0  0  0  0  0  0  0  0  0  0
    7.0738    0.4131   -0.1786 C   0  0  0  0  0  0  0  0  0  0  0  0
    5.7517    0.1908    0.2093 C   0  0  0  0  0  0  0  0  0  0  0  0
   -3.1429    0.2359   -0.0067 C   0  0  0  0  0  0  0  0  0  0  0  0
   -3.5209    1.5113    0.4290 C   0  0  0  0  0  0  0  0  0  0  0  0
   -4.0813    2.4221   -0.4681 C   0  0  0  0  0  0  0  0  0  0  0  0
   -4.2761    2.0596   -1.8000 C   0  0  0  0  0  0  0  0  0  0  0  0
   -3.9154    0.7854   -2.2357 C   0  0  0  0  0  0  0  0  0  0  0  0
   -3.3523   -0.1257   -1.3405 C   0  0  0  0  0  0  0  0  0  0  0  0
   -4.9710   -2.2305    0.0232 H   0  0  0  0  0  0  0  0  0  0  0  0
   -6.3959   -2.3725    1.0645 H   0  0  0  0  0  0  0  0  0  0  0  0
   -4.9200   -3.2808    1.4415 H   0  0  0  0  0  0  0  0  0  0  0  0
   -5.2120   -1.2844    2.9345 H   0  0  0  0  0  0  0  0  0  0  0  0
   -5.2176   -0.2232    1.5492 H   0  0  0  0  0  0  0  0  0  0  0  0
   -0.8746   -1.6946    1.5213 H   0  0  0  0  0  0  0  0  0  0  0  0
    0.5211   -1.5507   -0.1759 H   0  0  0  0  0  0  0  0  0  0  0  0
   -0.9122   -1.2820   -1.1199 H   0  0  0  0  0  0  0  0  0  0  0  0
    0.7953    0.3777   -1.7042 H   0  0  0  0  0  0  0  0  0  0  0  0
   -0.5325    1.2044   -0.9384 H   0  0  0  0  0  0  0  0  0  0  0  0
    1.3282    1.3568    2.3426 H   0  0  0  0  0  0  0  0  0  0  0  0
    1.4955   -0.3213    1.8255 H   0  0  0  0  0  0  0  0  0  0  0  0
   -1.0733    1.3140    1.7678 H   0  0  0  0  0  0  0  0  0  0  0  0
   -0.6724    0.1042    2.9677 H   0  0  0  0  0  0  0  0  0  0  0  0
    2.6281    1.7919   -1.0360 H   0  0  0  0  0  0  0  0  0  0  0  0
    3.0975    1.7844    0.6382 H   0  0  0  0  0  0  0  0  0  0  0  0
    2.8030   -0.7469   -1.0985 H   0  0  0  0  0  0  0  0  0  0  0  0
    3.2949   -0.7465    0.5812 H   0  0  0  0  0  0  0  0  0  0  0  0
    4.3013    0.1291   -2.8729 H   0  0  0  0  0  0  0  0  0  0  0  0
    6.6442    0.5198   -3.5479 H   0  0  0  0  0  0  0  0  0  0  0  0
    8.4246    0.7035   -1.8307 H   0  0  0  0  0  0  0  0  0  0  0  0
    7.8534    0.4968    0.5740 H   0  0  0  0  0  0  0  0  0  0  0  0
    5.5163    0.1059    1.2679 H   0  0  0  0  0  0  0  0  0  0  0  0
   -3.3751    1.8087    1.4642 H   0  0  0  0  0  0  0  0  0  0  0  0
   -4.3648    3.4147   -0.1274 H   0  0  0  0  0  0  0  0  0  0  0  0
   -4.7133    2.7696   -2.4977 H   0  0  0  0  0  0  0  0  0  0  0  0
   -4.0776    0.4995   -3.2718 H   0  0  0  0  0  0  0  0  0  0  0  0
   -3.0996   -1.1237   -1.6875 H   0  0  0  0  0  0  0  0  0  0  0  0
  1  2  1  0
  2  3  1  0
  3  4  2  0
  3  5  1  0
  5  6  1  0
  6  7  1  0
  7  8  1  0
  8  9  1  0
  9 10  1  0
 10 11  1  0
  9 12  1  0
 12 13  1  0
 13 14  1  0
 14 15  2  0
 15 16  1  0
 16 17  2  0
 17 18  1  0
 18 19  2  0
  5 20  1  0
 20 21  2  0
 21 22  1  0
 22 23  2  0
 23 24  1  0
 24 25  2  0
 11  6  1  0
 19 14  1  0
 25 20  1  0
  1 26  1  0
  1 27  1  0
  1 28  1  0
  2 29  1  0
  2 30  1  0
  6 31  1  0
  7 32  1  0
  7 33  1  0
  8 34  1  0
  8 35  1  0
 10 36  1  0
 10 37  1  0
 11 38  1  0
 11 39  1  0
 12 40  1  0
 12 41  1  0
 13 42  1  0
 13 43  1  0
 15 44  1  0
 16 45  1  0
 17 46  1  0
 18 47  1  0
 19 48  1  0
 21 49  1  0
 22 50  1  0
 23 51  1  0
 24 52  1  0
 25 53  1  0
M  END
$$$$
