
     RDKit          3D

 40 44  0  0  0  0  0  0  0  0999 V2000
    3.1854   -2.2907   -0.6974 C   0  0  0  0  0  0  0  0  0  0  0  0
    1.9147   -1.5730   -0.7431 N   0  0  0  0  0  0  0  0  0  0  0  0
    1.7749   -0.8059   -1.9802 C   0  0  0  0  0  0  0  0  0  0  0  0
    0.4384   -0.0460   -2.0654 C   0  0  0  0  0  0  0  0  0  0  0  0
    0.0196    0.5899   -0.7146 C   0  0  2  0  0  0  0  0  0  0  0  0
    1.2399    0.6861    0.2056 C   0  0  2  0  0  0  0  0  0  0  0  0
    1.6662   -0.7959    0.5027 C   0  0  1  0  0  0  0  0  0  0  0  0
    0.5709   -1.5702    1.3093 C   0  0  0  0  0  0  0  0  0  0  0  0
   -0.8264   -1.3132    0.8073 C   0  0  0  0  0  0  0  0  0  0  0  0
   -1.0272   -0.2679   -0.0762 C   0  0  0  0  0  0  0  0  0  0  0  0
   -2.2826    0.1786   -0.4268 C   0  0  0  0  0  0  0  0  0  0  0  0
   -3.4069   -0.4854    0.0033 C   0  0  0  0  0  0  0  0  0  0  0  0
   -3.2494   -1.5881    0.8424 C   0  0  0  0  0  0  0  0  0  0  0  0
   -1.9624   -1.9895    1.2624 C   0  0  0  0  0  0  0  0  0  0  0  0
   -4.6536   -0.0663   -0.3411 O   0  0  0  0  0  0  0  0  0  0  0  0
   -2.2401    1.3473   -1.1489 O   0  0  0  0  0  0  0  0  0  0  0  0
   -0.8675    1.8407   -0.8870 C   0  0  1  0  0  0  0  0  0  0  0  0
   -0.9099    2.7859    0.3550 C   0  0  1  0  0  0  0  0  0  0  0  0
    0.0562    2.4874    1.4670 C   0  0  0  0  0  0  0  0  0  0  0  0
    1.0123    1.5487    1.4192 C   0  0  0  0  0  0  0  0  0  0  0  0
   -0.6535    4.1320   -0.0624 O   0  0  0  0  0  0  0  0  0  0  0  0
    4.0401   -1.6057   -0.6678 H   0  0  0  0  0  0  0  0  0  0  0  0
    3.2311   -2.9406    0.1835 H   0  0  0  0  0  0  0  0  0  0  0  0
    3.2945   -2.9413   -1.5721 H   0  0  0  0  0  0  0  0  0  0  0  0
    2.6047   -0.0943   -2.0862 H   0  0  0  0  0  0  0  0  0  0  0  0
    1.8366   -1.4774   -2.8458 H   0  0  0  0  0  0  0  0  0  0  0  0
   -0.3359   -0.7246   -2.4474 H   0  0  0  0  0  0  0  0  0  0  0  0
    0.5628    0.7368   -2.8243 H   0  0  0  0  0  0  0  0  0  0  0  0
    2.0651    1.1828   -0.3252 H   0  0  0  0  0  0  0  0  0  0  0  0
    2.5786   -0.7681    1.1143 H   0  0  0  0  0  0  0  0  0  0  0  0
    0.7780   -2.6476    1.3015 H   0  0  0  0  0  0  0  0  0  0  0  0
    0.6157   -1.2437    2.3562 H   0  0  0  0  0  0  0  0  0  0  0  0
   -4.1264   -2.1189    1.2026 H   0  0  0  0  0  0  0  0  0  0  0  0
   -1.8650   -2.8195    1.9580 H   0  0  0  0  0  0  0  0  0  0  0  0
   -4.5219    0.7125   -0.9143 H   0  0  0  0  0  0  0  0  0  0  0  0
   -0.5715    2.4155   -1.7729 H   0  0  0  0  0  0  0  0  0  0  0  0
   -1.9212    2.7915    0.7781 H   0  0  0  0  0  0  0  0  0  0  0  0
   -0.0528    3.0899    2.3667 H   0  0  0  0  0  0  0  0  0  0  0  0
    1.6801    1.4221    2.2685 H   0  0  0  0  0  0  0  0  0  0  0  0
    0.3084    4.2262   -0.1677 H   0  0  0  0  0  0  0  0  0  0  0  0
  1  2  1  0
  2  3  1  0
  3  4  1  0
  5  4  1  6
  5  6  1  0
  6  7  1  0
  7  8  1  0
  8  9  1  0
  9 10  2  0
 10 11  1  0
 11 12  2  0
 12 13  1  0
 13 14  2  0
 12 15  1  0
 11 16  1  0
 16 17  1  0
 17 18  1  0
 18 19  1  0
 19 20  2  0
 18 21  1  0
  7  2  1  0
 10  5  1  0
 17  5  1  0
 20  6  1  0
 14  9  1  0
  1 22  1  0
  1 23  1  0
  1 24  1  0
  3 25  1  0
  3 26  1  0
  4 27  1  0
  4 28  1  0
  6 29  1  6
  7 30  1  1
  8 31  1  0
  8 32  1  0
 13 33  1  0
 14 34  1  0
 15 35  1  0
 17 36  1  6
 18 37  1  1
 19 38  1  0
 20 39  1  0
 21 40  1  0
M  END
$$$$
