
     RDKit          3D

 45 49  0  0  0  0  0  0  0  0999 V2000
   -5.2907    0.7845    0.4644 C   0  0  0  0  0  0  0  0  0  0  0  0
   -4.1963    0.1377    0.8891 C   0  0  0  0  0  0  0  0  0  0  0  0
   -3.1583   -0.4664   -0.0140 C   0  0  0  0  0  0  0  0  0  0  0  0
   -1.8483    0.1729    0.1711 N   0  0  0  0  0  0  0  0  0  0  0  0
   -1.1618   -0.3168    1.3786 C   0  0  0  0  0  0  0  0  0  0  0  0
    0.2129    0.3430    1.5831 C   0  0  0  0  0  0  0  0  0  0  0  0
    1.0394    0.3901    0.2679 C   0  0  2  0  0  0  0  0  0  0  0  0
    2.4509    0.9483    0.3987 C   0  0  1  0  0  0  0  0  0  0  0  0
    2.2338    2.3977    0.8391 C   0  0  0  0  0  0  0  0  0  0  0  0
    2.7874    2.8971    1.8153 O   0  0  0  0  0  0  0  0  0  0  0  0
    1.3217    3.2187   -0.0912 C   0  0  0  0  0  0  0  0  0  0  0  0
    0.0083    2.5012   -0.5031 C   0  0  0  0  0  0  0  0  0  0  0  0
    0.2469    1.0177   -0.8714 C   0  0  2  0  0  0  0  0  0  0  0  0
   -1.0007    0.0849   -1.0456 C   0  0  1  0  0  0  0  0  0  0  0  0
   -0.5493   -1.3945   -1.4518 C   0  0  0  0  0  0  0  0  0  0  0  0
    0.7208   -1.8897   -0.7945 C   0  0  0  0  0  0  0  0  0  0  0  0
    1.4505   -0.9873   -0.0520 C   0  0  0  0  0  0  0  0  0  0  0  0
    2.6956   -1.2183    0.4996 C   0  0  0  0  0  0  0  0  0  0  0  0
    3.2474   -2.4671    0.3949 C   0  0  0  0  0  0  0  0  0  0  0  0
    2.5379   -3.4462   -0.3148 C   0  0  0  0  0  0  0  0  0  0  0  0
    1.2868   -3.1561   -0.9230 C   0  0  0  0  0  0  0  0  0  0  0  0
    4.4587   -2.7612    0.9341 O   0  0  0  0  0  0  0  0  0  0  0  0
    3.2197   -0.0701    1.0755 O   0  0  0  0  0  0  0  0  0  0  0  0
    1.0099    1.0444   -2.0889 O   0  0  0  0  0  0  0  0  0  0  0  0
   -5.4958    0.9308   -0.5911 H   0  0  0  0  0  0  0  0  0  0  0  0
   -6.0037    1.1916    1.1749 H   0  0  0  0  0  0  0  0  0  0  0  0
   -4.0496    0.0210    1.9597 H   0  0  0  0  0  0  0  0  0  0  0  0
   -3.1090   -1.5475    0.1647 H   0  0  0  0  0  0  0  0  0  0  0  0
   -3.4932   -0.3416   -1.0521 H   0  0  0  0  0  0  0  0  0  0  0  0
   -1.7609   -0.0972    2.2699 H   0  0  0  0  0  0  0  0  0  0  0  0
   -1.0484   -1.4075    1.3504 H   0  0  0  0  0  0  0  0  0  0  0  0
    0.7456   -0.2006    2.3749 H   0  0  0  0  0  0  0  0  0  0  0  0
    0.0569    1.3533    1.9792 H   0  0  0  0  0  0  0  0  0  0  0  0
    2.9555    1.0637   -0.5763 H   0  0  0  0  0  0  0  0  0  0  0  0
    1.0757    4.1639    0.4049 H   0  0  0  0  0  0  0  0  0  0  0  0
    1.9092    3.4578   -0.9852 H   0  0  0  0  0  0  0  0  0  0  0  0
   -0.7134    2.6010    0.3146 H   0  0  0  0  0  0  0  0  0  0  0  0
   -0.4213    3.0364   -1.3590 H   0  0  0  0  0  0  0  0  0  0  0  0
   -1.5826    0.4769   -1.8912 H   0  0  0  0  0  0  0  0  0  0  0  0
   -1.3596   -2.1078   -1.2679 H   0  0  0  0  0  0  0  0  0  0  0  0
   -0.3703   -1.3925   -2.5352 H   0  0  0  0  0  0  0  0  0  0  0  0
    2.9670   -4.4399   -0.4210 H   0  0  0  0  0  0  0  0  0  0  0  0
    0.7847   -3.9305   -1.4976 H   0  0  0  0  0  0  0  0  0  0  0  0
    4.7657   -1.9429    1.3690 H   0  0  0  0  0  0  0  0  0  0  0  0
    0.4242    1.3475   -2.8061 H   0  0  0  0  0  0  0  0  0  0  0  0
  1  2  2  0
  2  3  1  0
  3  4  1  0
  4  5  1  0
  5  6  1  0
  7  6  1  1
  7  8  1  0
  8  9  1  0
  9 10  2  0
  9 11  1  0
 11 12  1  0
 12 13  1  0
 13 14  1  0
 14 15  1  0
 15 16  1  0
 16 17  2  0
 17 18  1  0
 18 19  2  0
 19 20  1  0
 20 21  2  0
 19 22  1  0
 18 23  1  0
 13 24  1  6
 14  4  1  0
 13  7  1  0
 17  7  1  0
 23  8  1  0
 21 16  1  0
  1 25  1  0
  1 26  1  0
  2 27  1  0
  3 28  1  0
  3 29  1  0
  5 30  1  0
  5 31  1  0
  6 32  1  0
  6 33  1  0
  8 34  1  6
 11 35  1  0
 11 36  1  0
 12 37  1  0
 12 38  1  0
 14 39  1  6
 15 40  1  0
 15 41  1  0
 20 42  1  0
 21 43  1  0
 22 44  1  0
 24 45  1  0
M  END
$$$$
