
     RDKit          3D

 31 32  0  0  0  0  0  0  0  0999 V2000
   -4.4364    0.7697    0.1402 C   0  0  0  0  0  0  0  0  0  0  0  0
   -3.8979   -0.5872    0.5718 C   0  0  0  0  0  0  0  0  0  0  0  0
   -2.3785   -0.6130    0.7661 C   0  0  0  0  0  0  0  0  0  0  0  0
   -1.6753   -0.4043   -0.4986 N   0  0  0  0  0  0  0  0  0  0  0  0
   -0.2171   -0.5726   -0.3863 C   0  0  1  0  0  0  0  0  0  0  0  0
    0.3700   -0.5923   -1.8216 C   0  0  0  0  0  0  0  0  0  0  0  0
    1.8788   -0.8954   -1.8221 C   0  0  0  0  0  0  0  0  0  0  0  0
    2.5871   -0.0987   -0.7827 C   0  0  0  0  0  0  0  0  0  0  0  0
    1.9366    0.5217    0.2616 C   0  0  0  0  0  0  0  0  0  0  0  0
    0.4615    0.5305    0.4775 C   0  0  0  0  0  0  0  0  0  0  0  0
    3.0588    1.3179    1.2602 S   0  0  0  0  0  0  0  0  0  0  0  0
    4.3298    0.7793    0.2295 C   0  0  0  0  0  0  0  0  0  0  0  0
    3.9578    0.0412   -0.7892 N   0  0  0  0  0  0  0  0  0  0  0  0
    5.6133    1.0864    0.4825 N   0  0  0  0  0  0  0  0  0  0  0  0
   -4.1344    1.5531    0.8425 H   0  0  0  0  0  0  0  0  0  0  0  0
   -5.5306    0.7461    0.1096 H   0  0  0  0  0  0  0  0  0  0  0  0
   -4.0834    1.0446   -0.8582 H   0  0  0  0  0  0  0  0  0  0  0  0
   -4.1962   -1.3469   -0.1609 H   0  0  0  0  0  0  0  0  0  0  0  0
   -4.3726   -0.8633    1.5212 H   0  0  0  0  0  0  0  0  0  0  0  0
   -2.0985    0.1514    1.4994 H   0  0  0  0  0  0  0  0  0  0  0  0
   -2.1072   -1.5905    1.1819 H   0  0  0  0  0  0  0  0  0  0  0  0
   -1.8912    0.5199   -0.8717 H   0  0  0  0  0  0  0  0  0  0  0  0
   -0.0069   -1.5543    0.0611 H   0  0  0  0  0  0  0  0  0  0  0  0
    0.1970    0.3813   -2.3010 H   0  0  0  0  0  0  0  0  0  0  0  0
   -0.1403   -1.3445   -2.4364 H   0  0  0  0  0  0  0  0  0  0  0  0
    2.2969   -0.6860   -2.8128 H   0  0  0  0  0  0  0  0  0  0  0  0
    2.0373   -1.9606   -1.6160 H   0  0  0  0  0  0  0  0  0  0  0  0
    0.0721    1.5178    0.1973 H   0  0  0  0  0  0  0  0  0  0  0  0
    0.2306    0.3706    1.5370 H   0  0  0  0  0  0  0  0  0  0  0  0
    6.2850    0.4913    0.0107 H   0  0  0  0  0  0  0  0  0  0  0  0
    5.8541    1.2870    1.4449 H   0  0  0  0  0  0  0  0  0  0  0  0
  1  2  1  0
  2  3  1  0
  3  4  1  0
  4  5  1  0
  5  6  1  0
  6  7  1  0
  7  8  1  0
  8  9  2  0
  9 10  1  0
  9 11  1  0
 11 12  1  0
 12 13  2  0
 12 14  1  0
 10  5  1  0
 13  8  1  0
  1 15  1  0
  1 16  1  0
  1 17  1  0
  2 18  1  0
  2 19  1  0
  3 20  1  0
  3 21  1  0
  4 22  1  0
  5 23  1  1
  6 24  1  0
  6 25  1  0
  7 26  1  0
  7 27  1  0
 10 28  1  0
 10 29  1  0
 14 30  1  0
 14 31  1  0
M  END
$$$$
