
     RDKit          3D

 61 64  0  0  0  0  0  0  0  0999 V2000
   -2.3294    0.3844    2.6073 C   0  0  0  0  0  0  0  0  0  0  0  0
   -2.4860    0.0856    1.1181 C   0  0  1  0  0  0  0  0  0  0  0  0
   -1.2013   -0.1065    0.5204 O   0  0  0  0  0  0  0  0  0  0  0  0
   -0.6005    1.1124    0.0648 C   0  0  0  0  0  0  0  0  0  0  0  0
    0.8620    0.8733   -0.4644 C   0  0  1  0  0  0  0  0  0  0  0  0
    1.7308    0.5886    0.7886 C   0  0  0  0  0  0  0  0  0  0  0  0
    1.6985   -0.6737    1.4159 C   0  0  0  0  0  0  0  0  0  0  0  0
    2.4528   -0.9471    2.5612 C   0  0  0  0  0  0  0  0  0  0  0  0
    3.2470    0.0431    3.1253 C   0  0  0  0  0  0  0  0  0  0  0  0
    3.2722    1.3095    2.5537 C   0  0  0  0  0  0  0  0  0  0  0  0
    2.5149    1.5815    1.4088 C   0  0  0  0  0  0  0  0  0  0  0  0
    0.8224   -0.2937   -1.5117 C   0  0  0  0  0  0  0  0  0  0  0  0
    1.7260   -0.1231   -2.7437 C   0  0  0  0  0  0  0  0  0  0  0  0
    2.9805    0.7109   -2.4644 C   0  0  1  0  0  0  0  0  0  0  0  0
    4.0024   -0.0552   -1.6067 C   0  0  0  0  0  0  0  0  0  0  0  0
    4.8157   -0.8706   -2.6141 C   0  0  0  0  0  0  0  0  0  0  0  0
    4.7122   -0.0535   -3.8723 C   0  0  0  0  0  0  0  0  0  0  0  0
    5.3466   -0.2175   -4.8989 O   0  0  0  0  0  0  0  0  0  0  0  0
    3.7352    0.9005   -3.6893 N   0  0  0  0  0  0  0  0  0  0  0  0
    2.5527    2.0721   -1.8618 C   0  0  0  0  0  0  0  0  0  0  0  0
    1.2537    2.1046   -1.1833 N   0  0  0  0  0  0  0  0  0  0  0  0
   -3.2934   -1.1835    0.9083 C   0  0  0  0  0  0  0  0  0  0  0  0
   -4.6506   -1.1087    0.5600 C   0  0  0  0  0  0  0  0  0  0  0  0
   -5.4181   -2.2703    0.3725 C   0  0  0  0  0  0  0  0  0  0  0  0
   -6.8838   -2.1700    0.0203 C   0  0  0  0  0  0  0  0  0  0  0  0
   -7.3312   -3.2284   -0.7104 F   0  0  0  0  0  0  0  0  0  0  0  0
   -7.1822   -1.0599   -0.7107 F   0  0  0  0  0  0  0  0  0  0  0  0
   -7.6760   -2.1147    1.1257 F   0  0  0  0  0  0  0  0  0  0  0  0
   -4.8113   -3.5234    0.5559 C   0  0  0  0  0  0  0  0  0  0  0  0
   -3.4544   -3.6262    0.9002 C   0  0  0  0  0  0  0  0  0  0  0  0
   -2.8117   -4.9761    1.1126 C   0  0  0  0  0  0  0  0  0  0  0  0
   -2.9235   -5.4027    2.4006 F   0  0  0  0  0  0  0  0  0  0  0  0
   -3.3659   -5.9555    0.3448 F   0  0  0  0  0  0  0  0  0  0  0  0
   -1.4799   -4.9893    0.8272 F   0  0  0  0  0  0  0  0  0  0  0  0
   -2.7115   -2.4499    1.0823 C   0  0  0  0  0  0  0  0  0  0  0  0
   -1.7523   -0.3993    3.1116 H   0  0  0  0  0  0  0  0  0  0  0  0
   -1.7839    1.3204    2.7634 H   0  0  0  0  0  0  0  0  0  0  0  0
   -3.3021    0.4692    3.1028 H   0  0  0  0  0  0  0  0  0  0  0  0
   -3.0005    0.9181    0.6210 H   0  0  0  0  0  0  0  0  0  0  0  0
   -1.2254    1.5040   -0.7492 H   0  0  0  0  0  0  0  0  0  0  0  0
   -0.5976    1.8556    0.8722 H   0  0  0  0  0  0  0  0  0  0  0  0
    1.0608   -1.4686    1.0350 H   0  0  0  0  0  0  0  0  0  0  0  0
    2.4084   -1.9338    3.0154 H   0  0  0  0  0  0  0  0  0  0  0  0
    3.8324   -0.1672    4.0162 H   0  0  0  0  0  0  0  0  0  0  0  0
    3.8771    2.0938    3.0021 H   0  0  0  0  0  0  0  0  0  0  0  0
    2.5553    2.5949    1.0210 H   0  0  0  0  0  0  0  0  0  0  0  0
   -0.1983   -0.4129   -1.9007 H   0  0  0  0  0  0  0  0  0  0  0  0
    1.0696   -1.2572   -1.0569 H   0  0  0  0  0  0  0  0  0  0  0  0
    1.1416    0.3729   -3.5324 H   0  0  0  0  0  0  0  0  0  0  0  0
    1.9749   -1.1109   -3.1521 H   0  0  0  0  0  0  0  0  0  0  0  0
    4.6805    0.6395   -1.0946 H   0  0  0  0  0  0  0  0  0  0  0  0
    3.5634   -0.7070   -0.8493 H   0  0  0  0  0  0  0  0  0  0  0  0
    4.3700   -1.8543   -2.7890 H   0  0  0  0  0  0  0  0  0  0  0  0
    5.8567   -0.9763   -2.2999 H   0  0  0  0  0  0  0  0  0  0  0  0
    3.4109    1.4287   -4.4910 H   0  0  0  0  0  0  0  0  0  0  0  0
    2.4849    2.8145   -2.6676 H   0  0  0  0  0  0  0  0  0  0  0  0
    3.3366    2.4526   -1.1972 H   0  0  0  0  0  0  0  0  0  0  0  0
    1.1703    2.9279   -0.5924 H   0  0  0  0  0  0  0  0  0  0  0  0
   -5.1214   -0.1337    0.4302 H   0  0  0  0  0  0  0  0  0  0  0  0
   -5.4024   -4.4316    0.4249 H   0  0  0  0  0  0  0  0  0  0  0  0
   -1.6583   -2.5173    1.3589 H   0  0  0  0  0  0  0  0  0  0  0  0
  1  2  1  0
  2  3  1  0
  3  4  1  0
  5  4  1  1
  5  6  1  0
  6  7  2  0
  7  8  1  0
  8  9  2  0
  9 10  1  0
 10 11  2  0
  5 12  1  0
 12 13  1  0
 13 14  1  0
 14 15  1  0
 15 16  1  0
 16 17  1  0
 17 18  2  0
 17 19  1  0
 14 20  1  0
 20 21  1  0
  2 22  1  0
 22 23  2  0
 23 24  1  0
 24 25  1  0
 25 26  1  0
 25 27  1  0
 25 28  1  0
 24 29  2  0
 29 30  1  0
 30 31  1  0
 31 32  1  0
 31 33  1  0
 31 34  1  0
 30 35  2  0
 21  5  1  0
 35 22  1  0
 11  6  1  0
 14 19  1  6
  1 36  1  0
  1 37  1  0
  1 38  1  0
  2 39  1  6
  4 40  1  0
  4 41  1  0
  7 42  1  0
  8 43  1  0
  9 44  1  0
 10 45  1  0
 11 46  1  0
 12 47  1  0
 12 48  1  0
 13 49  1  0
 13 50  1  0
 15 51  1  0
 15 52  1  0
 16 53  1  0
 16 54  1  0
 19 55  1  0
 20 56  1  0
 20 57  1  0
 21 58  1  0
 23 59  1  0
 29 60  1  0
 35 61  1  0
M  END
$$$$
