
     RDKit          3D

 58 61  0  0  0  0  0  0  0  0999 V2000
   -2.0542    2.1747   -1.4282 C   0  0  0  0  0  0  0  0  0  0  0  0
   -1.9948    0.6953   -1.0486 C   0  0  0  0  0  0  0  0  0  0  0  0
   -3.0524    0.2224   -0.0647 C   0  0  0  0  0  0  0  0  0  0  0  0
   -3.2318   -1.1635    0.1010 C   0  0  0  0  0  0  0  0  0  0  0  0
   -4.1839   -1.6829    0.9916 C   0  0  0  0  0  0  0  0  0  0  0  0
   -4.9580   -0.7909    1.7480 C   0  0  0  0  0  0  0  0  0  0  0  0
   -4.7897    0.5966    1.6198 C   0  0  0  0  0  0  0  0  0  0  0  0
   -3.8382    1.0892    0.7085 C   0  0  0  0  0  0  0  0  0  0  0  0
   -5.6350    1.5579    2.4231 C   0  0  0  0  0  0  0  0  0  0  0  0
   -4.9300    2.6297    2.8814 F   0  0  0  0  0  0  0  0  0  0  0  0
   -6.6643    2.0706    1.6935 F   0  0  0  0  0  0  0  0  0  0  0  0
   -6.2031    0.9885    3.5228 F   0  0  0  0  0  0  0  0  0  0  0  0
   -4.3375   -3.1755    1.1599 C   0  0  0  0  0  0  0  0  0  0  0  0
   -3.4946   -3.6823    2.1007 F   0  0  0  0  0  0  0  0  0  0  0  0
   -5.5927   -3.5390    1.5481 F   0  0  0  0  0  0  0  0  0  0  0  0
   -4.0896   -3.8729    0.0162 F   0  0  0  0  0  0  0  0  0  0  0  0
   -0.7315    0.4307   -0.4380 O   0  0  0  0  0  0  0  0  0  0  0  0
    0.2635   -0.0092   -1.3694 C   0  0  0  0  0  0  0  0  0  0  0  0
    1.6780    0.0773   -0.6692 C   0  0  0  0  0  0  0  0  0  0  0  0
    2.7520   -0.6272   -1.4349 N   0  0  0  0  0  0  0  0  0  0  0  0
    2.2949   -1.9706   -1.8248 C   0  0  0  0  0  0  0  0  0  0  0  0
    0.9721   -1.8953   -2.5936 C   0  0  0  0  0  0  0  0  0  0  0  0
   -0.0556   -1.3538   -1.7643 O   0  0  0  0  0  0  0  0  0  0  0  0
    4.0648   -0.6467   -0.7515 C   0  0  0  0  0  0  0  0  0  0  0  0
    4.0857   -1.4465    0.5295 C   0  0  0  0  0  0  0  0  0  0  0  0
    3.6642   -1.0301    1.6905 N   0  0  0  0  0  0  0  0  0  0  0  0
    3.8844   -2.0994    2.5191 N   0  0  0  0  0  0  0  0  0  0  0  0
    4.4473   -3.1518    1.8152 C   0  0  0  0  0  0  0  0  0  0  0  0
    4.7702   -4.2460    2.2381 O   0  0  0  0  0  0  0  0  0  0  0  0
    4.5685   -2.7057    0.5347 N   0  0  0  0  0  0  0  0  0  0  0  0
    2.0218    1.5530   -0.4476 C   0  0  0  0  0  0  0  0  0  0  0  0
    1.9698    2.0949    0.8482 C   0  0  0  0  0  0  0  0  0  0  0  0
    2.2664    3.4411    1.0656 C   0  0  0  0  0  0  0  0  0  0  0  0
    2.6154    4.2484   -0.0096 C   0  0  0  0  0  0  0  0  0  0  0  0
    2.6753    3.7363   -1.2998 C   0  0  0  0  0  0  0  0  0  0  0  0
    2.3788    2.3909   -1.5205 C   0  0  0  0  0  0  0  0  0  0  0  0
    2.9008    5.5404    0.2000 F   0  0  0  0  0  0  0  0  0  0  0  0
   -3.0382    2.4504   -1.8209 H   0  0  0  0  0  0  0  0  0  0  0  0
   -1.3064    2.4047   -2.1948 H   0  0  0  0  0  0  0  0  0  0  0  0
   -1.8187    2.8181   -0.5729 H   0  0  0  0  0  0  0  0  0  0  0  0
   -2.1238    0.1080   -1.9684 H   0  0  0  0  0  0  0  0  0  0  0  0
   -2.6056   -1.8497   -0.4731 H   0  0  0  0  0  0  0  0  0  0  0  0
   -5.6960   -1.1820    2.4503 H   0  0  0  0  0  0  0  0  0  0  0  0
   -3.7138    2.1680    0.6243 H   0  0  0  0  0  0  0  0  0  0  0  0
    0.2436    0.6273   -2.2640 H   0  0  0  0  0  0  0  0  0  0  0  0
    1.5622   -0.4136    0.3056 H   0  0  0  0  0  0  0  0  0  0  0  0
    3.0458   -2.4486   -2.4637 H   0  0  0  0  0  0  0  0  0  0  0  0
    2.1447   -2.5996   -0.9392 H   0  0  0  0  0  0  0  0  0  0  0  0
    0.6603   -2.9027   -2.8878 H   0  0  0  0  0  0  0  0  0  0  0  0
    1.0665   -1.2967   -3.5076 H   0  0  0  0  0  0  0  0  0  0  0  0
    4.8072   -1.0695   -1.4401 H   0  0  0  0  0  0  0  0  0  0  0  0
    4.4113    0.3685   -0.5305 H   0  0  0  0  0  0  0  0  0  0  0  0
    3.6540   -2.0913    3.5038 H   0  0  0  0  0  0  0  0  0  0  0  0
    4.9527   -3.2479   -0.2183 H   0  0  0  0  0  0  0  0  0  0  0  0
    1.6969    1.4672    1.6952 H   0  0  0  0  0  0  0  0  0  0  0  0
    2.2275    3.8617    2.0652 H   0  0  0  0  0  0  0  0  0  0  0  0
    2.9553    4.3860   -2.1223 H   0  0  0  0  0  0  0  0  0  0  0  0
    2.4376    1.9928   -2.5313 H   0  0  0  0  0  0  0  0  0  0  0  0
  1  2  1  0
  2  3  1  0
  3  4  2  0
  4  5  1  0
  5  6  2  0
  6  7  1  0
  7  8  2  0
  7  9  1  0
  9 10  1  0
  9 11  1  0
  9 12  1  0
  5 13  1  0
 13 14  1  0
 13 15  1  0
 13 16  1  0
  2 17  1  0
 17 18  1  0
 18 19  1  0
 19 20  1  0
 20 21  1  0
 21 22  1  0
 22 23  1  0
 20 24  1  0
 24 25  1  0
 25 26  2  0
 26 27  1  0
 27 28  1  0
 28 29  2  0
 28 30  1  0
 19 31  1  0
 31 32  1  0
 32 33  2  0
 33 34  1  0
 34 35  2  0
 35 36  1  0
 34 37  1  0
  8  3  1  0
 23 18  1  0
 30 25  1  0
 36 31  2  0
  1 38  1  0
  1 39  1  0
  1 40  1  0
  2 41  1  0
  4 42  1  0
  6 43  1  0
  8 44  1  0
 18 45  1  0
 19 46  1  0
 21 47  1  0
 21 48  1  0
 22 49  1  0
 22 50  1  0
 24 51  1  0
 24 52  1  0
 27 53  1  0
 30 54  1  0
 32 55  1  0
 33 56  1  0
 35 57  1  0
 36 58  1  0
M  END
