
     RDKit          3D

 45 49  0  0  0  0  0  0  0  0999 V2000
    5.3960    0.4979    1.2099 C   0  0  0  0  0  0  0  0  0  0  0  0
    4.3116    0.9951    0.5999 C   0  0  0  0  0  0  0  0  0  0  0  0
    3.4118    0.2154   -0.3140 C   0  0  0  0  0  0  0  0  0  0  0  0
    2.0070    0.2779    0.1051 N   0  0  0  0  0  0  0  0  0  0  0  0
    1.7635   -0.3830    1.3881 C   0  0  0  0  0  0  0  0  0  0  0  0
    0.2848   -0.3450    1.8177 C   0  0  0  0  0  0  0  0  0  0  0  0
   -0.6988   -0.5990    0.6440 C   0  0  2  0  0  0  0  0  0  0  0  0
    0.0661   -1.2167   -0.5283 C   0  0  2  0  0  0  0  0  0  0  0  0
    1.0853   -0.1264   -0.9974 C   0  0  1  0  0  0  0  0  0  0  0  0
    0.4109    1.1986   -1.4951 C   0  0  0  0  0  0  0  0  0  0  0  0
   -0.7967    1.5993   -0.6876 C   0  0  0  0  0  0  0  0  0  0  0  0
   -1.3028    0.7001    0.2329 C   0  0  0  0  0  0  0  0  0  0  0  0
   -2.5133    0.8829    0.8658 C   0  0  0  0  0  0  0  0  0  0  0  0
   -3.2306    2.0411    0.6802 C   0  0  0  0  0  0  0  0  0  0  0  0
   -2.7253    3.0068   -0.1899 C   0  0  0  0  0  0  0  0  0  0  0  0
   -1.5199    2.7790   -0.8888 C   0  0  0  0  0  0  0  0  0  0  0  0
   -4.4255    2.2416    1.2976 O   0  0  0  0  0  0  0  0  0  0  0  0
   -2.8878   -0.2079    1.6119 O   0  0  0  0  0  0  0  0  0  0  0  0
   -2.0079   -1.2589    1.1103 C   0  0  1  0  0  0  0  0  0  0  0  0
   -2.7162   -2.0652    0.0111 C   0  0  0  0  0  0  0  0  0  0  0  0
   -3.9380   -2.2359    0.0009 O   0  0  0  0  0  0  0  0  0  0  0  0
   -1.8469   -2.7810   -0.9980 C   0  0  0  0  0  0  0  0  0  0  0  0
   -0.8281   -1.8323   -1.6192 C   0  0  1  0  0  0  0  0  0  0  0  0
   -1.4880   -0.8616   -2.4095 O   0  0  0  0  0  0  0  0  0  0  0  0
    6.0015    1.1250    1.8572 H   0  0  0  0  0  0  0  0  0  0  0  0
    5.7011   -0.5355    1.0819 H   0  0  0  0  0  0  0  0  0  0  0  0
    4.0469    2.0387    0.7575 H   0  0  0  0  0  0  0  0  0  0  0  0
    3.5183    0.6739   -1.3059 H   0  0  0  0  0  0  0  0  0  0  0  0
    3.7410   -0.8272   -0.4084 H   0  0  0  0  0  0  0  0  0  0  0  0
    2.3434    0.0960    2.1861 H   0  0  0  0  0  0  0  0  0  0  0  0
    2.1030   -1.4267    1.3515 H   0  0  0  0  0  0  0  0  0  0  0  0
    0.0813    0.6150    2.3111 H   0  0  0  0  0  0  0  0  0  0  0  0
    0.1577   -1.1169    2.5875 H   0  0  0  0  0  0  0  0  0  0  0  0
    0.6347   -2.0788   -0.1480 H   0  0  0  0  0  0  0  0  0  0  0  0
    1.6618   -0.5482   -1.8315 H   0  0  0  0  0  0  0  0  0  0  0  0
    0.0986    1.0627   -2.5376 H   0  0  0  0  0  0  0  0  0  0  0  0
    1.1378    2.0212   -1.4995 H   0  0  0  0  0  0  0  0  0  0  0  0
   -3.2837    3.9234   -0.3582 H   0  0  0  0  0  0  0  0  0  0  0  0
   -1.1718    3.5195   -1.6046 H   0  0  0  0  0  0  0  0  0  0  0  0
   -4.6138    1.4144    1.7806 H   0  0  0  0  0  0  0  0  0  0  0  0
   -1.8268   -1.9658    1.9290 H   0  0  0  0  0  0  0  0  0  0  0  0
   -1.3535   -3.6163   -0.4896 H   0  0  0  0  0  0  0  0  0  0  0  0
   -2.5009   -3.1903   -1.7765 H   0  0  0  0  0  0  0  0  0  0  0  0
   -0.1892   -2.4030   -2.3038 H   0  0  0  0  0  0  0  0  0  0  0  0
   -2.0984   -1.3041   -3.0265 H   0  0  0  0  0  0  0  0  0  0  0  0
  1  2  2  0
  2  3  1  0
  3  4  1  0
  4  5  1  0
  5  6  1  0
  7  6  1  1
  7  8  1  0
  8  9  1  0
  9 10  1  0
 10 11  1  0
 11 12  2  0
 12 13  1  0
 13 14  2  0
 14 15  1  0
 15 16  2  0
 14 17  1  0
 13 18  1  0
 18 19  1  0
 19 20  1  0
 20 21  2  0
 20 22  1  0
 22 23  1  0
 23 24  1  0
  9  4  1  0
 12  7  1  0
 19  7  1  0
 23  8  1  0
 16 11  1  0
  1 25  1  0
  1 26  1  0
  2 27  1  0
  3 28  1  0
  3 29  1  0
  5 30  1  0
  5 31  1  0
  6 32  1  0
  6 33  1  0
  8 34  1  1
  9 35  1  6
 10 36  1  0
 10 37  1  0
 15 38  1  0
 16 39  1  0
 17 40  1  0
 19 41  1  1
 22 42  1  0
 22 43  1  0
 23 44  1  6
 24 45  1  0
M  END
