
     RDKit          3D

 61 64  0  0  0  0  0  0  0  0999 V2000
   -4.0852   -0.9303   -0.2765 C   0  0  0  0  0  0  0  0  0  0  0  0
   -4.4380   -2.1870   -1.0924 C   0  0  0  0  0  0  0  0  0  0  0  0
   -5.8033   -1.8675   -1.7029 C   0  0  0  0  0  0  0  0  0  0  0  0
   -6.3975   -0.9040   -0.7088 C   0  0  0  0  0  0  0  0  0  0  0  0
   -7.5516   -0.5164   -0.6777 O   0  0  0  0  0  0  0  0  0  0  0  0
   -5.3968   -0.4914    0.1457 N   0  0  0  0  0  0  0  0  0  0  0  0
   -3.1717   -1.2553    0.9225 C   0  0  0  0  0  0  0  0  0  0  0  0
   -1.7956   -1.5994    0.5512 N   0  0  0  0  0  0  0  0  0  0  0  0
   -1.0969   -0.5207   -0.2035 C   0  0  0  0  0  0  0  0  0  0  0  0
    0.2833   -1.0575   -0.7351 C   0  0  0  0  0  0  0  0  0  0  0  0
    1.1074   -1.5780    0.3176 O   0  0  0  0  0  0  0  0  0  0  0  0
    2.4550   -1.8243   -0.0947 C   0  0  0  0  0  0  0  0  0  0  0  0
    3.0675   -2.8118    0.8951 C   0  0  0  0  0  0  0  0  0  0  0  0
    3.2526   -0.5313   -0.1229 C   0  0  0  0  0  0  0  0  0  0  0  0
    4.0942   -0.2432   -1.2073 C   0  0  0  0  0  0  0  0  0  0  0  0
    4.8230    0.9564   -1.2601 C   0  0  0  0  0  0  0  0  0  0  0  0
    5.7313    1.2449   -2.4321 C   0  0  0  0  0  0  0  0  0  0  0  0
    5.2439    0.7626   -3.6101 F   0  0  0  0  0  0  0  0  0  0  0  0
    6.9639    0.6881   -2.2805 F   0  0  0  0  0  0  0  0  0  0  0  0
    5.9401    2.5757   -2.6340 F   0  0  0  0  0  0  0  0  0  0  0  0
    4.7178    1.8636   -0.1931 C   0  0  0  0  0  0  0  0  0  0  0  0
    3.8923    1.5928    0.9102 C   0  0  0  0  0  0  0  0  0  0  0  0
    3.7834    2.5894    2.0408 C   0  0  0  0  0  0  0  0  0  0  0  0
    3.2188    2.0833    3.1724 F   0  0  0  0  0  0  0  0  0  0  0  0
    3.0473    3.6849    1.7024 F   0  0  0  0  0  0  0  0  0  0  0  0
    5.0028    3.0700    2.4227 F   0  0  0  0  0  0  0  0  0  0  0  0
    3.1634    0.3952    0.9292 C   0  0  0  0  0  0  0  0  0  0  0  0
   -0.7925    0.7039    0.6903 C   0  0  0  0  0  0  0  0  0  0  0  0
   -0.7176    2.0133    0.1840 C   0  0  0  0  0  0  0  0  0  0  0  0
   -0.3950    3.0938    1.0123 C   0  0  0  0  0  0  0  0  0  0  0  0
   -0.1312    2.8898    2.3626 C   0  0  0  0  0  0  0  0  0  0  0  0
   -0.1803    1.6039    2.8862 C   0  0  0  0  0  0  0  0  0  0  0  0
   -0.4989    0.5256    2.0579 C   0  0  0  0  0  0  0  0  0  0  0  0
   -1.9589   -0.1984   -1.4631 C   0  0  0  0  0  0  0  0  0  0  0  0
   -3.4138    0.1556   -1.1392 C   0  0  0  0  0  0  0  0  0  0  0  0
   -3.7025   -2.4560   -1.8552 H   0  0  0  0  0  0  0  0  0  0  0  0
   -4.5503   -3.0559   -0.4302 H   0  0  0  0  0  0  0  0  0  0  0  0
   -6.4217   -2.7634   -1.7973 H   0  0  0  0  0  0  0  0  0  0  0  0
   -5.7062   -1.3691   -2.6717 H   0  0  0  0  0  0  0  0  0  0  0  0
   -5.5754    0.2731    0.7873 H   0  0  0  0  0  0  0  0  0  0  0  0
   -3.1732   -0.4130    1.6255 H   0  0  0  0  0  0  0  0  0  0  0  0
   -3.5905   -2.0935    1.4935 H   0  0  0  0  0  0  0  0  0  0  0  0
   -1.7737   -2.4635    0.0140 H   0  0  0  0  0  0  0  0  0  0  0  0
    0.1171   -1.8720   -1.4521 H   0  0  0  0  0  0  0  0  0  0  0  0
    0.8086   -0.2510   -1.2629 H   0  0  0  0  0  0  0  0  0  0  0  0
    2.4454   -2.2928   -1.0876 H   0  0  0  0  0  0  0  0  0  0  0  0
    2.4947   -3.7459    0.9005 H   0  0  0  0  0  0  0  0  0  0  0  0
    3.0398   -2.4245    1.9202 H   0  0  0  0  0  0  0  0  0  0  0  0
    4.1073   -3.0428    0.6409 H   0  0  0  0  0  0  0  0  0  0  0  0
    4.1812   -0.9557   -2.0282 H   0  0  0  0  0  0  0  0  0  0  0  0
    5.2863    2.7951   -0.2189 H   0  0  0  0  0  0  0  0  0  0  0  0
    2.5059    0.1787    1.7727 H   0  0  0  0  0  0  0  0  0  0  0  0
   -0.8940    2.2282   -0.8650 H   0  0  0  0  0  0  0  0  0  0  0  0
   -0.3408    4.0974    0.5984 H   0  0  0  0  0  0  0  0  0  0  0  0
    0.1269    3.7296    3.0020 H   0  0  0  0  0  0  0  0  0  0  0  0
    0.0421    1.4330    3.9359 H   0  0  0  0  0  0  0  0  0  0  0  0
   -0.5036   -0.4761    2.4860 H   0  0  0  0  0  0  0  0  0  0  0  0
   -1.9611   -1.0712   -2.1304 H   0  0  0  0  0  0  0  0  0  0  0  0
   -1.5153    0.6044   -2.0622 H   0  0  0  0  0  0  0  0  0  0  0  0
   -3.4460    1.1163   -0.6092 H   0  0  0  0  0  0  0  0  0  0  0  0
   -3.9643    0.3141   -2.0748 H   0  0  0  0  0  0  0  0  0  0  0  0
  1  2  1  0
  2  3  1  0
  3  4  1  0
  4  5  2  0
  4  6  1  0
  1  7  1  0
  7  8  1  0
  8  9  1  0
  9 10  1  0
 10 11  1  0
 11 12  1  0
 12 13  1  0
 12 14  1  0
 14 15  2  0
 15 16  1  0
 16 17  1  0
 17 18  1  0
 17 19  1  0
 17 20  1  0
 16 21  2  0
 21 22  1  0
 22 23  1  0
 23 24  1  0
 23 25  1  0
 23 26  1  0
 22 27  2  0
  9 28  1  0
 28 29  2  0
 29 30  1  0
 30 31  2  0
 31 32  1  0
 32 33  2  0
  9 34  1  0
 34 35  1  0
  6  1  1  0
 27 14  1  0
 33 28  1  0
 35  1  1  0
  2 36  1  0
  2 37  1  0
  3 38  1  0
  3 39  1  0
  6 40  1  0
  7 41  1  0
  7 42  1  0
  8 43  1  0
 10 44  1  0
 10 45  1  0
 12 46  1  0
 13 47  1  0
 13 48  1  0
 13 49  1  0
 15 50  1  0
 21 51  1  0
 27 52  1  0
 29 53  1  0
 30 54  1  0
 31 55  1  0
 32 56  1  0
 33 57  1  0
 34 58  1  0
 34 59  1  0
 35 60  1  0
 35 61  1  0
M  END
