@<TRIPOS>MOLECULE
UNL
   40    41     1     0     0
SMALL
bcc


@<TRIPOS>ATOM
      1 C1          -4.9140     1.3230    -0.5020 c3         1 UNL      -0.108600
      2 C2          -4.0760     0.1310    -0.0350 c3         1 UNL       0.167500
      3 C3          -4.9280    -0.7840     0.8500 c3         1 UNL      -0.108600
      4 N1          -2.9030     0.5330     0.7450 n3         1 UNL      -0.827200
      5 C4          -1.8720     1.2760     0.0100 c3         1 UNL       0.168800
      6 C5          -1.1840     0.5360    -1.1510 c3         1 UNL      -0.000200
      7 C6          -0.3490    -0.6300    -0.7180 cc         1 UNL      -0.143400
      8 C7          -0.7480    -1.9520    -0.6750 cd         1 UNL      -0.082100
      9 N2           0.3010    -2.7040    -0.2220 na         1 UNL      -0.197400
     10 C8           1.3910    -1.9040     0.0230 ca         1 UNL      -0.049200
     11 C9           2.6670    -2.2360     0.4880 ca         1 UNL      -0.145000
     12 C10          3.5920    -1.1980     0.6480 ca         1 UNL      -0.110000
     13 C11          3.2640     0.1300     0.3510 ca         1 UNL      -0.114300
     14 C12          4.2720     1.2420     0.5460 c3         1 UNL      -0.065100
     15 C13          5.5380     1.0870    -0.3010 c3         1 UNL       0.127400
     16 O1           6.4700     0.1910     0.3010 oh         1 UNL      -0.601800
     17 C14          1.9680     0.4320    -0.1080 ca         1 UNL      -0.084000
     18 C15          1.0150    -0.5960    -0.2790 ca         1 UNL      -0.089800
     19 H1          -4.3690     1.9380    -1.2240 hc         1 UNL       0.036867
     20 H2          -5.2070     1.9610     0.3390 hc         1 UNL       0.036867
     21 H3          -5.8300     0.9800    -0.9950 hc         1 UNL       0.036867
     22 H4          -3.7740    -0.4590    -0.9060 h1         1 UNL       0.056700
     23 H5          -4.3540    -1.6580     1.1770 hc         1 UNL       0.036867
     24 H6          -5.2890    -0.2610     1.7430 hc         1 UNL       0.036867
     25 H7          -5.8010    -1.1500     0.2990 hc         1 UNL       0.036867
     26 H8          -3.1960     1.0810     1.5530 hn         1 UNL       0.358800
     27 H9          -2.2900     2.2170    -0.3650 h1         1 UNL       0.030700
     28 H10         -1.1040     1.5650     0.7380 h1         1 UNL       0.030700
     29 H11         -0.5360     1.2510    -1.6750 hc         1 UNL       0.045700
     30 H12         -1.9190     0.2130    -1.8980 hc         1 UNL       0.045700
     31 H13         -1.6960    -2.4140    -0.9140 h4         1 UNL       0.180000
     32 H14          0.2820    -3.7040    -0.0810 hn         1 UNL       0.296700
     33 H15          2.9390    -3.2610     0.7180 ha         1 UNL       0.131000
     34 H16          4.5880    -1.4470     1.0090 ha         1 UNL       0.149000
     35 H17          4.5230     1.2940     1.6130 hc         1 UNL       0.048700
     36 H18          3.8010     2.1970     0.2810 hc         1 UNL       0.048700
     37 H19          5.3120     0.7260    -1.3090 h1         1 UNL       0.048200
     38 H20          6.0410     2.0550    -0.3940 h1         1 UNL       0.048200
     39 H21          6.6840     0.5400     1.1820 ho         1 UNL       0.396000
     40 H22          1.6890     1.4560    -0.3350 ha         1 UNL       0.128000
@<TRIPOS>BOND
     1     1     2 1   
     2     1    19 1   
     3     1    20 1   
     4     1    21 1   
     5     2     3 1   
     6     2     4 1   
     7     2    22 1   
     8     3    23 1   
     9     3    24 1   
    10     3    25 1   
    11     4     5 1   
    12     4    26 1   
    13     5     6 1   
    14     5    27 1   
    15     5    28 1   
    16     6     7 1   
    17     6    29 1   
    18     6    30 1   
    19     7     8 2   
    20     7    18 1   
    21     8     9 1   
    22     8    31 1   
    23     9    10 1   
    24     9    32 1   
    25    10    11 ar  
    26    10    18 ar  
    27    11    12 ar  
    28    11    33 1   
    29    12    13 ar  
    30    12    34 1   
    31    13    14 1   
    32    13    17 ar  
    33    14    15 1   
    34    14    35 1   
    35    14    36 1   
    36    15    16 1   
    37    15    37 1   
    38    15    38 1   
    39    16    39 1   
    40    17    18 ar  
    41    17    40 1   
@<TRIPOS>SUBSTRUCTURE
     1 UNL         1 TEMP              0 ****  ****    0 ROOT
