
     RDKit          3D

 43 44  0  0  0  0  0  0  0  0999 V2000
   -3.3287   -2.0503    1.1615 C   0  0  0  0  0  0  0  0  0  0  0  0
   -2.4186   -2.6461    0.0998 C   0  0  0  0  0  0  0  0  0  0  0  0
   -2.1247   -1.7235   -1.0910 C   0  0  0  0  0  0  0  0  0  0  0  0
   -1.3977   -0.5047   -0.6867 N   0  0  0  0  0  0  0  0  0  0  0  0
   -2.3052    0.6555   -0.6140 C   0  0  0  0  0  0  0  0  0  0  0  0
   -1.7584    1.7350    0.3296 C   0  0  0  0  0  0  0  0  0  0  0  0
   -2.7280    2.9012    0.4533 C   0  0  0  0  0  0  0  0  0  0  0  0
   -0.2638   -0.2320   -1.5978 C   0  0  0  0  0  0  0  0  0  0  0  0
    0.9735   -1.0960   -1.2854 C   0  0  0  0  0  0  0  0  0  0  0  0
    1.7398   -0.6159   -0.0778 C   0  0  0  0  0  0  0  0  0  0  0  0
    2.8199    0.2517   -0.1801 C   0  0  0  0  0  0  0  0  0  0  0  0
    3.4590    0.8684   -1.3918 C   0  0  0  0  0  0  0  0  0  0  0  0
    4.5785    1.7148   -0.7788 C   0  0  0  0  0  0  0  0  0  0  0  0
    5.3779    2.4112   -1.3822 O   0  0  0  0  0  0  0  0  0  0  0  0
    4.5226    1.5487    0.5979 N   0  0  0  0  0  0  0  0  0  0  0  0
    3.4935    0.6944    0.9598 C   0  0  0  0  0  0  0  0  0  0  0  0
    3.1383    0.3098    2.2338 C   0  0  0  0  0  0  0  0  0  0  0  0
    2.0517   -0.5556    2.3569 C   0  0  0  0  0  0  0  0  0  0  0  0
    1.3610   -1.0100    1.2171 C   0  0  0  0  0  0  0  0  0  0  0  0
   -3.5557   -2.8019    1.9246 H   0  0  0  0  0  0  0  0  0  0  0  0
   -4.2756   -1.7169    0.7258 H   0  0  0  0  0  0  0  0  0  0  0  0
   -2.8555   -1.2025    1.6657 H   0  0  0  0  0  0  0  0  0  0  0  0
   -2.8880   -3.5602   -0.2841 H   0  0  0  0  0  0  0  0  0  0  0  0
   -1.4768   -2.9566    0.5677 H   0  0  0  0  0  0  0  0  0  0  0  0
   -3.0527   -1.4832   -1.6263 H   0  0  0  0  0  0  0  0  0  0  0  0
   -1.5321   -2.3169   -1.7995 H   0  0  0  0  0  0  0  0  0  0  0  0
   -2.4935    1.0693   -1.6133 H   0  0  0  0  0  0  0  0  0  0  0  0
   -3.2817    0.3498   -0.2196 H   0  0  0  0  0  0  0  0  0  0  0  0
   -0.7959    2.1199   -0.0229 H   0  0  0  0  0  0  0  0  0  0  0  0
   -1.5884    1.3061    1.3248 H   0  0  0  0  0  0  0  0  0  0  0  0
   -2.8999    3.3724   -0.5196 H   0  0  0  0  0  0  0  0  0  0  0  0
   -3.6926    2.5698    0.8510 H   0  0  0  0  0  0  0  0  0  0  0  0
   -2.3241    3.6592    1.1318 H   0  0  0  0  0  0  0  0  0  0  0  0
    0.0422    0.8195   -1.5463 H   0  0  0  0  0  0  0  0  0  0  0  0
   -0.5747   -0.3982   -2.6381 H   0  0  0  0  0  0  0  0  0  0  0  0
    1.6375   -1.0814   -2.1589 H   0  0  0  0  0  0  0  0  0  0  0  0
    0.7045   -2.1509   -1.1518 H   0  0  0  0  0  0  0  0  0  0  0  0
    2.7590    1.5172   -1.9240 H   0  0  0  0  0  0  0  0  0  0  0  0
    3.8936    0.1071   -2.0443 H   0  0  0  0  0  0  0  0  0  0  0  0
    5.1585    2.0078    1.2316 H   0  0  0  0  0  0  0  0  0  0  0  0
    3.6699    0.6644    3.1085 H   0  0  0  0  0  0  0  0  0  0  0  0
    1.7259   -0.8802    3.3423 H   0  0  0  0  0  0  0  0  0  0  0  0
    0.5057   -1.6703    1.3512 H   0  0  0  0  0  0  0  0  0  0  0  0
  1  2  1  0
  2  3  1  0
  3  4  1  0
  4  5  1  0
  5  6  1  0
  6  7  1  0
  4  8  1  0
  8  9  1  0
  9 10  1  0
 10 11  2  0
 11 12  1  0
 12 13  1  0
 13 14  2  0
 13 15  1  0
 15 16  1  0
 16 17  2  0
 17 18  1  0
 18 19  2  0
 19 10  1  0
 16 11  1  0
  1 20  1  0
  1 21  1  0
  1 22  1  0
  2 23  1  0
  2 24  1  0
  3 25  1  0
  3 26  1  0
  5 27  1  0
  5 28  1  0
  6 29  1  0
  6 30  1  0
  7 31  1  0
  7 32  1  0
  7 33  1  0
  8 34  1  0
  8 35  1  0
  9 36  1  0
  9 37  1  0
 12 38  1  0
 12 39  1  0
 15 40  1  0
 17 41  1  0
 18 42  1  0
 19 43  1  0
M  END
$$$$
